[Format]      =  4.0
[Frequency]   =  0
[Precision]   =  1e-008
[MinAngle]    =  30
[DoSmartMesh] =  1
[Depth]       =  20
[LengthUnits] =  millimeters
[ProblemType] =  planar
[Coordinates] =  cartesian
[ACSolver]    =  0
[PrevType]    =  0
[PrevSoln]    =  ""
[Comment]     =  "Add comments here."
[PointProps]   = 0
[BdryProps]   = 0
[BlockProps]  = 4
  <BeginBlock>
    <BlockName> = "Magnet_Material"
    <Mu_x> = 1.1240000000000001
    <Mu_y> = 1.1240000000000001
    <H_c> = 800000
    <H_cAngle> = 0
    <J_re> = 0
    <J_im> = 0
    <Sigma> = 0.66700000000000004
    <d_lam> = 0
    <Phi_h> = 0
    <Phi_hx> = 0
    <Phi_hy> = 0
    <LamType> = 0
    <LamFill> = 1
    <NStrands> = 0
    <WireD> = 0
    <BHPoints> = 0
  <EndBlock>
  <BeginBlock>
    <BlockName> = "Shaft_Material"
    <Mu_x> = 760
    <Mu_y> = 760
    <H_c> = 0
    <H_cAngle> = 0
    <J_re> = 0
    <J_im> = 0
    <Sigma> = 5.7999999999999998
    <d_lam> = 0
    <Phi_h> = 20
    <Phi_hx> = 0
    <Phi_hy> = 0
    <LamType> = 0
    <LamFill> = 1
    <NStrands> = 0
    <WireD> = 0
    <BHPoints> = 38
      0	0
      0.16625200000000001	79.577472
      0.20872499999999999	100.182101
      0.26163500000000001	126.121793
      0.32714599999999999	158.77793
      0.407495	199.88957099999999
      0.50460400000000005	251.646061
      0.61936599999999997	316.80362000000002
      0.750502	398.83212800000001
      0.89319499999999996	502.09990099999999
      1.0382579999999999	632.10632499999997
      1.173276	795.77471500000001
      1.2867310000000001	1001.821011
      1.3735329999999999	1261.2179289999999
      1.4376580000000001	1587.779301
      1.4891890000000001	1998.89571
      1.5383439999999999	2516.4606050000002
      1.591321	3168.036204
      1.6497230000000001	3988.3212819999999
      1.711927	5020.9990129999996
      1.7747120000000001	6321.0632500000002
      1.8349759999999999	7957.747155
      1.8914420000000001	10018.210114
      1.945262	12612.179292999999
      1.998705	15877.793009999999
      2.0528520000000001	19988.957103000001
      2.1061839999999998	25164.606051999999
      2.1551490000000002	31680.362036999999
      2.1963750000000002	39883.212823000002
      2.2290079999999999	50209.990126999997
      2.2554500000000002	63210.632496999999
      2.2800530000000001	79577.471546000001
      2.3071359999999999	100182.101136
      2.3399749999999999	126121.79292599999
      2.3810440000000002	158777.930096
      2.4327079999999999	199889.57102999999
      2.4977480000000001	251646.06052200001
      2.5796269999999999	316803.62037000002
  <EndBlock>
  <BeginBlock>
    <BlockName> = "Housing_Material"
    <Mu_x> = 1
    <Mu_y> = 1
    <H_c> = 0
    <H_cAngle> = 0
    <J_re> = 0
    <J_im> = 0
    <Sigma> = 1.45
    <d_lam> = 0
    <Phi_h> = 0
    <Phi_hx> = 0
    <Phi_hy> = 0
    <LamType> = 0
    <LamFill> = 1
    <NStrands> = 0
    <WireD> = 0
    <BHPoints> = 0
  <EndBlock>
  <BeginBlock>
    <BlockName> = "Air"
    <Mu_x> = 1
    <Mu_y> = 1
    <H_c> = 0
    <H_cAngle> = 0
    <J_re> = 0
    <J_im> = 0
    <Sigma> = 0
    <d_lam> = 0
    <Phi_h> = 0
    <Phi_hx> = 0
    <Phi_hy> = 0
    <LamType> = 0
    <LamFill> = 1
    <NStrands> = 0
    <WireD> = 0
    <BHPoints> = 0
  <EndBlock>
[CircuitProps]  = 0
[NumPoints] = 280
15.040177293104895	-1.4845120964113185	0	0
13.568999372500048	-1.7771475794355109	0	0
12.008276796371021	6.069134663790333	0	0
13.479454716975868	6.3617701468145249	0	0
13.205646401957361	6.8325316475154354	0	0
12.912543727859392	7.2915286043158769	0	0
12.600651371345696	7.7379706967128401	0	0
12.270506361955208	8.1710892217034043	0	0
11.437151012425804	6.9238848032495879	0	0
4.7853941140054452	11.368446667406404	0	0
5.6187494635348481	12.615651085860222	0	0
5.0922590977728284	12.754918019032546	0	0
4.560444348636663	12.87222299129154	0	0
4.0242209174045698	12.967364021941458	0	0
3.4845120964113163	13.040177293104893	0	0
3.7771475794355136	11.568999372500048	0	0
-4.0691346637903294	10.008276796371023	0	0
-4.3617701468145222	11.479454716975868	0	0
-4.8325316475154372	11.20564640195736	0	0
-5.291528604315876	10.912543727859392	0	0
-5.7379706967128419	10.600651371345693	0	0
-6.1710892217034061	10.270506361955206	0	0
-4.9238848032495861	9.4371510124258062	0	0
-9.3684466674064044	2.7853941140054466	0	0
-10.615651085860222	3.6187494635348494	0	0
-10.754918019032546	3.092259097772831	0	0
-10.872222991291542	2.5604443486366635	0	0
-10.967364021941458	2.0242209174045769	0	0
-11.040177293104893	1.4845120964113234	0	0
-9.5689993725000466	1.777147579435514	0	0
-8.0082767963710246	-6.0691346637903303	0	0
-9.4794547169758694	-6.3617701468145222	0	0
-9.2056464019573614	-6.8325316475154336	0	0
-8.9125437278593918	-7.2915286043158769	0	0
-8.6006513713456982	-7.7379706967128357	0	0
-8.2705063619552099	-8.1710892217034026	0	0
-7.437151012425808	-6.9238848032495843	0	0
-0.78539411400544834	-11.368446667406406	0	0
-1.6187494635348516	-12.615651085860224	0	0
-1.092259097772831	-12.754918019032544	0	0
-0.56044434863666348	-12.87222299129154	0	0
-0.024220917404577325	-12.967364021941458	0	0
0.51548790358867658	-13.040177293104893	0	0
0.22285242056448329	-11.568999372500047	0	0
8.0691346637903276	-10.008276796371025	0	0
8.3617701468145196	-11.479454716975869	0	0
8.8325316475154416	-11.20564640195736	0	0
9.2915286043158751	-10.912543727859392	0	0
9.7379706967128357	-10.600651371345698	0	0
10.171089221703406	-10.270506361955206	0	0
8.9238848032495817	-9.437151012425808	0	0
13.368446667406404	-2.7853941140054506	0	0
14.615651085860222	-3.6187494635348534	0	0
14.754918019032548	-3.092259097772823	0	0
14.872222991291542	-2.5604443486366635	0	0
14.967364021941458	-2.0242209174045769	0	0
6.9039264020161522	0.97545161008064118	0	0
6.6909566796124214	1.7305852853874648	0	0
6.3624800353639852	2.4431062074847745	0	0
5.9265846544037242	3.0954697465491701	0	0
5.3940037276647086	3.671612547178428	0	0
4.7778511650980109	4.1573480615127263	0	0
4.09329868768714	4.5407158691254068	0	0
3.3572022493253715	4.8122761822682367	0	0
2.5876869872891883	4.9653422847746311	0	0
1.8037009212046569	4.9961451812036151	0	0
1.0245483899193588	4.9039264020161522	0	0
0.26941471461253519	4.6909566796124214	0	0
-0.44310620748477447	4.3624800353639852	0	0
-1.0954697465491701	3.9265846544037246	0	0
-1.671612547178428	3.3940037276647086	0	0
-2.1573480615127263	2.7778511650980113	0	0
-2.5407158691254068	2.0932986876871409	0	0
-2.8122761822682367	1.3572022493253715	0	0
-2.9653422847746302	0.58768698728918833	0	0
-2.9961451812036159	-0.19629907879534311	0	0
-2.9039264020161522	-0.97545161008064118	0	0
-2.6909566796124214	-1.7305852853874648	0	0
-2.3624800353639852	-2.4431062074847745	0	0
-1.9265846544037246	-3.0954697465491701	0	0
-1.394003727664709	-3.671612547178428	0	0
-0.77785116509801089	-4.1573480615127263	0	0
-0.093298687687140447	-4.5407158691254068	0	0
0.64279775067462852	-4.8122761822682367	0	0
1.4123130127108117	-4.9653422847746311	0	0
2.1962990787953434	-4.9961451812036151	0	0
2.9754516100806412	-4.9039264020161522	0	0
3.7305852853874648	-4.6909566796124214	0	0
4.4431062074847745	-4.3624800353639852	0	0
5.0954697465491705	-3.9265846544037246	0	0
5.6716125471784284	-3.3940037276647086	0	0
6.1573480615127263	-2.7778511650980113	0	0
6.5407158691254068	-2.0932986876871409	0	0
6.8122761822682367	-1.3572022493253715	0	0
6.9653422847746302	-0.58768698728918833	0	0
6.9961451812036159	0.19629907879534311	0	0
26	0	0	0
25.679896855473583	4.0672960910460025	0	0
24.727469423673991	8.034441853748632	0	0
23.166169628897567	11.803752993228217	0	0
21.034441853748632	15.282416559604302	0	0
18.384776310850238	18.384776310850238	0	0
15.282416559604302	21.034441853748632	0	0
11.803752993228217	23.166169628897567	0	0
8.034441853748632	24.727469423673991	0	0
4.0672960910460025	25.679896855473583	0	0
0	26	0	0
-4.0672960910460025	25.679896855473583	0	0
-8.034441853748632	24.727469423673991	0	0
-11.803752993228217	23.166169628897567	0	0
-15.282416559604302	21.034441853748632	0	0
-18.384776310850238	18.384776310850238	0	0
-21.034441853748632	15.282416559604302	0	0
-23.166169628897567	11.803752993228217	0	0
-24.727469423673991	8.034441853748632	0	0
-25.679896855473583	4.0672960910460025	0	0
-26	0	0	0
-25.679896855473583	-4.0672960910460025	0	0
-24.727469423673991	-8.034441853748632	0	0
-23.166169628897567	-11.803752993228217	0	0
-21.034441853748632	-15.282416559604302	0	0
-18.384776310850238	-18.384776310850238	0	0
-15.282416559604302	-21.034441853748632	0	0
-11.803752993228217	-23.166169628897567	0	0
-8.034441853748632	-24.727469423673991	0	0
-4.0672960910460025	-25.679896855473583	0	0
0	-26	0	0
4.0672960910460025	-25.679896855473583	0	0
8.034441853748632	-24.727469423673991	0	0
11.803752993228217	-23.166169628897567	0	0
15.282416559604302	-21.034441853748632	0	0
18.384776310850238	-18.384776310850238	0	0
21.034441853748632	-15.282416559604302	0	0
23.166169628897567	-11.803752993228217	0	0
24.727469423673991	-8.034441853748632	0	0
25.679896855473583	-4.0672960910460025	0	0
19	-4	0	0
20.5	-4	0	0
20.5	4	0	0
19	4	0	0
18.71702551966753	5.1645866917028744	0	0
18.362740824415795	6.3094967640322537	0	0
17.938495707657992	7.4303682106834916	0	0
17.44590650583725	8.5229306103936793	0	0
16.886849940327473	9.5830213968696754	0	0
16.263455967290593	10.606601717798215	0	0
17.324116139070416	11.667261889578032	0	0
11.667261889578036	17.324116139070412	0	0
10.606601717798213	16.263455967290593	0	0
9.5830213968696754	16.886849940327473	0	0
8.5229306103936793	17.44590650583725	0	0
7.4303682106834916	17.938495707657992	0	0
6.3094967640322555	18.362740824415795	0	0
5.1645866917028771	18.71702551966753	0	0
4.0000000000000036	19	0	0
4.0000000000000044	20.5	0	0
-3.9999999999999956	20.5	0	0
-3.9999999999999956	19	0	0
-5.1645866917028718	18.71702551966753	0	0
-6.3094967640322519	18.362740824415798	0	0
-7.4303682106834916	17.938495707657992	0	0
-8.5229306103936775	17.44590650583725	0	0
-9.5830213968696718	16.886849940327476	0	0
-10.60660171779821	16.263455967290593	0	0
-11.667261889578029	17.324116139070416	0	0
-17.324116139070412	11.667261889578038	0	0
-16.263455967290589	10.606601717798217	0	0
-16.886849940327476	9.5830213968696718	0	0
-17.44590650583725	8.5229306103936775	0	0
-17.938495707657992	7.4303682106834916	0	0
-18.362740824415798	6.3094967640322466	0	0
-18.717025519667533	5.1645866917028682	0	0
-19	3.9999999999999938	0	0
-20.5	4.0000000000000053	0	0
-20.5	-3.9999999999999947	0	0
-19	-3.9999999999999947	0	0
-18.71702551966753	-5.1645866917028771	0	0
-18.362740824415795	-6.3094967640322555	0	0
-17.938495707657992	-7.4303682106834916	0	0
-17.445906505837247	-8.5229306103936864	0	0
-16.886849940327473	-9.5830213968696807	0	0
-16.263455967290589	-10.606601717798219	0	0
-17.324116139070419	-11.667261889578027	0	0
-11.66726188957804	-17.324116139070409	0	0
-10.60660171779822	-16.263455967290589	0	0
-9.5830213968696718	-16.886849940327476	0	0
-8.5229306103936775	-17.44590650583725	0	0
-7.4303682106834916	-17.938495707657992	0	0
-6.3094967640322466	-18.362740824415798	0	0
-5.1645866917028682	-18.717025519667533	0	0
-3.9999999999999938	-19	0	0
-4.0000000000000089	-20.5	0	0
3.9999999999999911	-20.5	0	0
3.9999999999999916	-19	0	0
5.1645866917028593	-18.717025519667533	0	0
6.3094967640322466	-18.362740824415798	0	0
7.4303682106834916	-17.938495707657992	0	0
8.5229306103936686	-17.445906505837254	0	0
9.5830213968696558	-16.886849940327483	0	0
10.606601717798204	-16.2634559672906	0	0
11.667261889578025	-17.324116139070419	0	0
17.324116139070409	-11.667261889578043	0	0
16.263455967290589	-10.606601717798222	0	0
16.886849940327465	-9.5830213968696896	0	0
17.445906505837247	-8.5229306103936864	0	0
17.938495707657992	-7.4303682106834916	0	0
18.362740824415791	-6.3094967640322652	0	0
18.717025519667523	-5.1645866917028957	0	0
16.511355213709741	-1.1918766133871261	0	0
14.950632637580712	6.6544056298387169	0	0
13.103861711484612	9.4182936401572235	0	0
6.4521048130642518	13.862855504314041	0	0
3.1918766133871292	14.511355213709738	0	0
-4.6544056298387142	12.950632637580714	0	0
-7.4182936401572199	11.103861711484614	0	0
-11.862855504314041	4.4521048130642544	0	0
-12.511355213709738	1.1918766133871301	0	0
-10.950632637580714	-6.6544056298387133	0	0
-9.1038617114846154	-9.4182936401572181	0	0
-2.4521048130642553	-13.862855504314039	0	0
0.80812338661286676	-14.511355213709738	0	0
8.6544056298387098	-12.950632637580714	0	0
11.418293640157216	-11.103861711484615	0	0
15.862855504314037	-4.452104813064258	0	0
17.5	-4	0	0
17.5	4	0	0
15.202795795510772	9.5459415460183905	0	0
9.5459415460183923	15.20279579551077	0	0
4.0000000000000036	17.5	0	0
-3.999999999999996	17.5	0	0
-9.545941546018387	15.202795795510774	0	0
-15.20279579551077	9.5459415460183941	0	0
-17.5	4.0000000000000044	0	0
-17.5	-3.9999999999999951	0	0
-15.202795795510774	-9.5459415460183852	0	0
-9.5459415460183976	-15.202795795510768	0	0
-4.000000000000008	-17.5	0	0
3.999999999999992	-17.5	0	0
9.5459415460183834	-15.202795795510777	0	0
15.202795795510767	-9.5459415460184012	0	0
52	0	0	0
51.359793710947166	8.1345921820920051	0	0
49.454938847347982	16.068883707497264	0	0
46.332339257795134	23.607505986456434	0	0
42.068883707497264	30.564833119208604	0	0
36.769552621700477	36.769552621700477	0	0
30.564833119208604	42.068883707497264	0	0
23.607505986456434	46.332339257795134	0	0
16.068883707497264	49.454938847347982	0	0
8.1345921820920051	51.359793710947166	0	0
0	52	0	0
-8.1345921820920051	51.359793710947166	0	0
-16.068883707497264	49.454938847347982	0	0
-23.607505986456434	46.332339257795134	0	0
-30.564833119208604	42.068883707497264	0	0
-36.769552621700477	36.769552621700477	0	0
-42.068883707497264	30.564833119208604	0	0
-46.332339257795134	23.607505986456434	0	0
-49.454938847347982	16.068883707497264	0	0
-51.359793710947166	8.1345921820920051	0	0
-52	0	0	0
-51.359793710947166	-8.1345921820920051	0	0
-49.454938847347982	-16.068883707497264	0	0
-46.332339257795134	-23.607505986456434	0	0
-42.068883707497264	-30.564833119208604	0	0
-36.769552621700477	-36.769552621700477	0	0
-30.564833119208604	-42.068883707497264	0	0
-23.607505986456434	-46.332339257795134	0	0
-16.068883707497264	-49.454938847347982	0	0
-8.1345921820920051	-51.359793710947166	0	0
0	-52	0	0
8.1345921820920051	-51.359793710947166	0	0
16.068883707497264	-49.454938847347982	0	0
23.607505986456434	-46.332339257795134	0	0
30.564833119208604	-42.068883707497264	0	0
36.769552621700477	-36.769552621700477	0	0
42.068883707497264	-30.564833119208604	0	0
46.332339257795134	-23.607505986456434	0	0
49.454938847347982	-16.068883707497264	0	0
51.359793710947166	-8.1345921820920051	0	0
[NumSegments] = 296
0	1	-1	0	0	0
1	2	-1	0	0	0
2	3	-1	0	0	0
3	4	-1	0	0	0
4	5	-1	0	0	0
5	6	-1	0	0	0
6	7	-1	0	0	0
7	8	-1	0	0	0
8	9	-1	0	0	0
9	10	-1	0	0	0
10	11	-1	0	0	0
11	12	-1	0	0	0
12	13	-1	0	0	0
13	14	-1	0	0	0
14	15	-1	0	0	0
15	16	-1	0	0	0
16	17	-1	0	0	0
17	18	-1	0	0	0
18	19	-1	0	0	0
19	20	-1	0	0	0
20	21	-1	0	0	0
21	22	-1	0	0	0
22	23	-1	0	0	0
23	24	-1	0	0	0
24	25	-1	0	0	0
25	26	-1	0	0	0
26	27	-1	0	0	0
27	28	-1	0	0	0
28	29	-1	0	0	0
29	30	-1	0	0	0
30	31	-1	0	0	0
31	32	-1	0	0	0
32	33	-1	0	0	0
33	34	-1	0	0	0
34	35	-1	0	0	0
35	36	-1	0	0	0
36	37	-1	0	0	0
37	38	-1	0	0	0
38	39	-1	0	0	0
39	40	-1	0	0	0
40	41	-1	0	0	0
41	42	-1	0	0	0
42	43	-1	0	0	0
43	44	-1	0	0	0
44	45	-1	0	0	0
45	46	-1	0	0	0
46	47	-1	0	0	0
47	48	-1	0	0	0
48	49	-1	0	0	0
49	50	-1	0	0	0
50	51	-1	0	0	0
51	52	-1	0	0	0
52	53	-1	0	0	0
53	54	-1	0	0	0
54	55	-1	0	0	0
55	0	-1	0	0	0
56	57	-1	0	0	0
57	58	-1	0	0	0
58	59	-1	0	0	0
59	60	-1	0	0	0
60	61	-1	0	0	0
61	62	-1	0	0	0
62	63	-1	0	0	0
63	64	-1	0	0	0
64	65	-1	0	0	0
65	66	-1	0	0	0
66	67	-1	0	0	0
67	68	-1	0	0	0
68	69	-1	0	0	0
69	70	-1	0	0	0
70	71	-1	0	0	0
71	72	-1	0	0	0
72	73	-1	0	0	0
73	74	-1	0	0	0
74	75	-1	0	0	0
75	76	-1	0	0	0
76	77	-1	0	0	0
77	78	-1	0	0	0
78	79	-1	0	0	0
79	80	-1	0	0	0
80	81	-1	0	0	0
81	82	-1	0	0	0
82	83	-1	0	0	0
83	84	-1	0	0	0
84	85	-1	0	0	0
85	86	-1	0	0	0
86	87	-1	0	0	0
87	88	-1	0	0	0
88	89	-1	0	0	0
89	90	-1	0	0	0
90	91	-1	0	0	0
91	92	-1	0	0	0
92	93	-1	0	0	0
93	94	-1	0	0	0
94	95	-1	0	0	0
95	56	-1	0	0	0
96	97	-1	0	0	0
97	98	-1	0	0	0
98	99	-1	0	0	0
99	100	-1	0	0	0
100	101	-1	0	0	0
101	102	-1	0	0	0
102	103	-1	0	0	0
103	104	-1	0	0	0
104	105	-1	0	0	0
105	106	-1	0	0	0
106	107	-1	0	0	0
107	108	-1	0	0	0
108	109	-1	0	0	0
109	110	-1	0	0	0
110	111	-1	0	0	0
111	112	-1	0	0	0
112	113	-1	0	0	0
113	114	-1	0	0	0
114	115	-1	0	0	0
115	116	-1	0	0	0
116	117	-1	0	0	0
117	118	-1	0	0	0
118	119	-1	0	0	0
119	120	-1	0	0	0
120	121	-1	0	0	0
121	122	-1	0	0	0
122	123	-1	0	0	0
123	124	-1	0	0	0
124	125	-1	0	0	0
125	126	-1	0	0	0
126	127	-1	0	0	0
127	128	-1	0	0	0
128	129	-1	0	0	0
129	130	-1	0	0	0
130	131	-1	0	0	0
131	132	-1	0	0	0
132	133	-1	0	0	0
133	134	-1	0	0	0
134	135	-1	0	0	0
135	96	-1	0	0	0
136	137	-1	0	0	0
137	138	-1	0	0	0
138	139	-1	0	0	0
139	140	-1	0	0	0
140	141	-1	0	0	0
141	142	-1	0	0	0
142	143	-1	0	0	0
143	144	-1	0	0	0
144	145	-1	0	0	0
145	146	-1	0	0	0
146	147	-1	0	0	0
147	148	-1	0	0	0
148	149	-1	0	0	0
149	150	-1	0	0	0
150	151	-1	0	0	0
151	152	-1	0	0	0
152	153	-1	0	0	0
153	154	-1	0	0	0
154	155	-1	0	0	0
155	156	-1	0	0	0
156	157	-1	0	0	0
157	158	-1	0	0	0
158	159	-1	0	0	0
159	160	-1	0	0	0
160	161	-1	0	0	0
161	162	-1	0	0	0
162	163	-1	0	0	0
163	164	-1	0	0	0
164	165	-1	0	0	0
165	166	-1	0	0	0
166	167	-1	0	0	0
167	168	-1	0	0	0
168	169	-1	0	0	0
169	170	-1	0	0	0
170	171	-1	0	0	0
171	172	-1	0	0	0
172	173	-1	0	0	0
173	174	-1	0	0	0
174	175	-1	0	0	0
175	176	-1	0	0	0
176	177	-1	0	0	0
177	178	-1	0	0	0
178	179	-1	0	0	0
179	180	-1	0	0	0
180	181	-1	0	0	0
181	182	-1	0	0	0
182	183	-1	0	0	0
183	184	-1	0	0	0
184	185	-1	0	0	0
185	186	-1	0	0	0
186	187	-1	0	0	0
187	188	-1	0	0	0
188	189	-1	0	0	0
189	190	-1	0	0	0
190	191	-1	0	0	0
191	192	-1	0	0	0
192	193	-1	0	0	0
193	194	-1	0	0	0
194	195	-1	0	0	0
195	196	-1	0	0	0
196	197	-1	0	0	0
197	198	-1	0	0	0
198	199	-1	0	0	0
199	200	-1	0	0	0
200	201	-1	0	0	0
201	202	-1	0	0	0
202	203	-1	0	0	0
203	204	-1	0	0	0
204	205	-1	0	0	0
205	206	-1	0	0	0
206	207	-1	0	0	0
207	136	-1	0	0	0
0	208	-1	0	0	0
208	209	-1	0	0	0
209	3	-1	0	0	0
7	210	-1	0	0	0
210	211	-1	0	0	0
211	10	-1	0	0	0
14	212	-1	0	0	0
212	213	-1	0	0	0
213	17	-1	0	0	0
21	214	-1	0	0	0
214	215	-1	0	0	0
215	24	-1	0	0	0
28	216	-1	0	0	0
216	217	-1	0	0	0
217	31	-1	0	0	0
35	218	-1	0	0	0
218	219	-1	0	0	0
219	38	-1	0	0	0
42	220	-1	0	0	0
220	221	-1	0	0	0
221	45	-1	0	0	0
49	222	-1	0	0	0
222	223	-1	0	0	0
223	52	-1	0	0	0
136	224	-1	0	0	0
224	225	-1	0	0	0
225	139	-1	0	0	0
145	226	-1	0	0	0
226	227	-1	0	0	0
227	148	-1	0	0	0
154	228	-1	0	0	0
228	229	-1	0	0	0
229	157	-1	0	0	0
163	230	-1	0	0	0
230	231	-1	0	0	0
231	166	-1	0	0	0
172	232	-1	0	0	0
232	233	-1	0	0	0
233	175	-1	0	0	0
181	234	-1	0	0	0
234	235	-1	0	0	0
235	184	-1	0	0	0
190	236	-1	0	0	0
236	237	-1	0	0	0
237	193	-1	0	0	0
199	238	-1	0	0	0
238	239	-1	0	0	0
239	202	-1	0	0	0
240	241	-1	0	0	0
241	242	-1	0	0	0
242	243	-1	0	0	0
243	244	-1	0	0	0
244	245	-1	0	0	0
245	246	-1	0	0	0
246	247	-1	0	0	0
247	248	-1	0	0	0
248	249	-1	0	0	0
249	250	-1	0	0	0
250	251	-1	0	0	0
251	252	-1	0	0	0
252	253	-1	0	0	0
253	254	-1	0	0	0
254	255	-1	0	0	0
255	256	-1	0	0	0
256	257	-1	0	0	0
257	258	-1	0	0	0
258	259	-1	0	0	0
259	260	-1	0	0	0
260	261	-1	0	0	0
261	262	-1	0	0	0
262	263	-1	0	0	0
263	264	-1	0	0	0
264	265	-1	0	0	0
265	266	-1	0	0	0
266	267	-1	0	0	0
267	268	-1	0	0	0
268	269	-1	0	0	0
269	270	-1	0	0	0
270	271	-1	0	0	0
271	272	-1	0	0	0
272	273	-1	0	0	0
273	274	-1	0	0	0
274	275	-1	0	0	0
275	276	-1	0	0	0
276	277	-1	0	0	0
277	278	-1	0	0	0
278	279	-1	0	0	0
279	240	-1	0	0	0
[NumArcSegments] = 0
[NumHoles] = 0
[NumBlockLabels] = 21
10	0	2	-1	0	0	0	1	0
23.25	0	3	-1	0	0	0	1	0
14.995404965342804	2.5849467667136992	1	-1	0	11.25	0	1	0
9.3613055875097313	11.016972363008723	1	-1	0	236.25	0	1	0
-0.5849467667136965	12.995404965342804	1	-1	0	101.25	0	1	0
-9.0169723630087226	7.3613055875097322	1	-1	0	326.25	0	1	0
-10.995404965342804	-2.5849467667136956	1	-1	0	191.25	0	1	0
-5.3613055875097331	-11.016972363008721	1	-1	0	416.25	0	1	0
4.5849467667136921	-12.995404965342804	1	-1	0	281.25	0	1	0
13.016972363008719	-7.3613055875097348	1	-1	0	506.25	0	1	0
18.25	0	1	-1	0	0	0	1	0
12.904698756654492	12.904698756654494	1	-1	0	225	0	1	0
3.7747582837255322e-015	18.25	1	-1	0	90	0	1	0
-12.904698756654488	12.904698756654494	1	-1	0	315	0	1	0
-18.25	5.3290705182007514e-015	1	-1	0	180	0	1	0
-12.904698756654497	-12.904698756654486	1	-1	0	405	0	1	0
-8.5487172896137054e-015	-18.25	1	-1	0	270	0	1	0
12.904698756654486	-12.904698756654499	1	-1	0	495	0	1	0
0	0	4	-1	0	0	0	1	0
-17.149999999999999	0	4	-1	0	0	0	1	0
39	0	4	-1	0	0	0	1	0
