[Format]      =  1
[Precision]   =  1e-008
[Frequency]   =  60
[MinAngle]    =  30
[DoSmartMesh] =  1
[Depth]       =  1
[LengthUnits] =  inches
[ProblemType] =  planar
[Coordinates] =  cartesian
[Comment]     =  "Add comments here."
[PointProps]   = 0
[BdryProps]   = 2
  <BeginBdry>
    <BdryName> = "U+"
    <BdryType> = 0
    <vsr> = 5
    <vsi> = 0
    <qsr> = 0
    <qsi> = 0
    <c0r>  = 0
    <c0i>  = 0
    <c1r>  = 0
    <c1i>  = 0
  <EndBdry>
  <BeginBdry>
    <BdryName> = "U-"
    <BdryType> = 0
    <vsr> = -5
    <vsi> = 0
    <qsr> = 0
    <qsi> = 0
    <c0r>  = 0
    <c0i>  = 0
    <c1r>  = 0
    <c1i>  = 0
  <EndBdry>
[BlockProps]  = 2
  <BeginBlock>
    <BlockName> = "Air"
    <ox> = 0
    <oy> = 0
    <ex> = 1
    <ey> = 1
    <ltx> = 0
    <lty> = 0
  <EndBlock>
  <BeginBlock>
    <BlockName> = "Ceramic"
    <ox> = 1e-008
    <oy> = 1e-008
    <ex> = 6
    <ey> = 6
    <ltx> = 0
    <lty> = 0
  <EndBlock>
[ConductorProps]  = 0
[NumPoints] = 9
1	-1.5	0	0	0
1	1.5	0	0	0
1.5	1.5	0	0	0
1.5	-1.5	0	0	0
1	1.3999999999999999	0	0	0
1.5	-1.3500000000000001	0	0	0
1.5	-1.25	0	0	0
0	-4	0	0	0
0	4	0	0	0
[NumSegments] = 8
0	4	-1	1	0	0	0
1	2	-1	2	0	0	0
2	6	-1	2	0	0	0
0	3	-1	1	0	0	0
4	1	-1	0	0	0	0
5	3	-1	1	0	0	0
6	5	-1	0	0	0	0
7	8	-1	0	0	0	0
[NumArcSegments] = 1
7	8	180	2	0	0	0	0	1
[NumHoles] = 0
[NumBlockLabels] = 2
1.25	0	2	0.050000000000000003	0	0
0.5	0	1	0.050000000000000003	0	0
[Solution]
11651
0	-4	2.8410439790421562	-0.00057543471269564652	-2
0	-3.9962499999999999	2.8410464028431726	-0.00057543409351484647	-2
0.0039056550592046512	-3.9999318265373542	2.8410413452318632	-0.00057543538554306753	-2
0	-3.9884448242187496	2.8410670017358388	-0.00057542883127050177	-2
0.0057602651225250757	-3.9942708649312806	2.8410440247103166	-0.00057543470103606296	-2
0.0078113101184093111	-3.9998636530747085	2.8410344521458164	-0.00057543714645411147	-2
0	-3.9806396484374997	2.8411047314112214	-0.00057541919272252042	-2
0.010257107081526572	-3.9853321594730544	2.8410632077058904	-0.00057542980055141858	-2
0.011637494142048874	-3.9952425870337755	2.8410252410290582	-0.0005754394995319583	-2
0.015622620236818612	-3.9997273061494174	2.8410051065019903	-0.00057544464309369206	-2
0	-3.9650292968749996	2.8412391778479567	-0.00057538484570386628	-2
0.0097727190953137439	-3.9728344726562499	2.8411472405761806	-0.00057540833329652885	-2
0.020821632239728414	-3.9910945054833751	2.8409821436765856	-0.00057545050924846179	-2
0.02477971286394004	-3.9712723438484154	2.8410716066984789	-0.00057542765683239944	-2
0.031245240473637234	-3.9994546122988348	2.8408852355680803	-0.00057547526445826214	-2
0	-3.9338085937499998	2.841765530715338	-0.00057525035869740188	-2
0.015560135997857522	-3.9555674427777112	2.8413375696487106	-0.00057535970994810205	-2
0.035328669569066384	-3.9836850096679379	2.840882418684525	-0.00057547598559216397	-2
0.042608965658043993	-3.9668089484377589	2.8409248825461497	-0.00057546514679913225	-2
0.046867860710455837	-3.9991819184482522	2.8406869208152052	-0.00057552592181526541	-2
0	-3.902587890625	2.8426278262932998	-0.0005750299786068464	-2
0.025743445051121923	-3.9318420910938596	2.8416931533625833	-0.00057526887374082631	-2
0.04535388173014087	-3.9486356276200034	2.8411431032521324	-0.00057540941497369986	-2
0.054373756011206698	-3.9815483683378461	2.8406099554235729	-0.00057554558484606752	-2
0.065110351667062555	-3.9609136218836447	2.8405722082999718	-0.00057555525289682778	-2
0.062490480947274447	-3.9989092245976696	2.8404137977515873	-0.00057559568314088927	-2
0	-3.8713671874999998	2.8438640103108916	-0.00057471390401709677	-2
0.029252007629136031	-3.9028004807129482	2.8424547418742478	-0.00057507427920872403	-2
0.049670424859668216	-3.9237483536999709	2.841573265109405	-0.00057529956519349523	-2
0.074920778337654315	-3.9230936805016676	2.8410499392826165	-0.00057543336016055099	-2
0.078353615424816475	-3.9809148946300845	2.8400660558039266	-0.00057568449618974936	-2
0.10262159266731496	-3.9504615977609907	2.8396180001310345	-0.00057579903022564804	-2
0.10104423387863916	-3.9982362663370266	2.8393368537089256	-0.00057587066367322881	-2
0	-3.8089257812499997	2.8472870668126218	-0.00057383785037805844	-2
0.037395988398604543	-3.8412737548041163	2.8450546570666004	-0.00057440953375609456	-2
0.061245785251725901	-3.8829302288483163	2.8427367922315452	-0.00057500241106517454	-2
0.13265764212676184	-3.8923573577114259	2.8398505193276229	-0.00057574068693433552	-2
0.13959798681000388	-3.997563308076383	2.8378350956839955	-0.00057625397087142328	-2
0.16013469061746394	-3.9433766202363545	2.837174521480549	-0.00057642287332638814	-2
0	-3.7464843749999996	2.8521897005334393	-0.00057258118903263044	-2
0.057339027685315694	-3.780428665599711	2.8487135433030297	-0.00057347340478068078	-2
0.085287518916065688	-3.8380370984390795	2.8441226224046745	-0.00057464895859333663	-2
0.16204191097978762	-3.8586571858955079	2.8396775828988869	-0.0005757866402148835	-2
0.12799874168652448	-3.8322145438836097	2.8427360182662285	-0.00057500489981426666	-2
0.18332572707429978	-3.8979781219080731	2.8368754711631503	-0.00057650057158195492	-2
0.20931194089325256	-3.9939097545578401	2.8338930626587477	-0.00057725903037536823	-2
0.21257269734757184	-3.9415410488304832	2.8338882351075432	-0.00057726079626796878	-2
0	-3.6840429687499996	2.8585824650459108	-0.00057093898629916897	-2
0.036369123402006903	-3.7152636718749994	2.854900536768906	-0.0005718860625361816	-2
0.102082945064602	-3.8016746811740023	2.8458495620742834	-0.00057420829521001495	-2
0.083925080527264093	-3.7473420821052721	2.8507916078791813	-0.00057294239303951587	-2
0.20098075067253196	-3.8406562849607955	2.8379421034215344	-0.00057623232538844891	-2
0.16717940661775532	-3.8142416145829703	2.8416952104311473	-0.00057527394919499773	-2
0.22820928465169577	-3.8738055324397971	2.8343649575370744	-0.00057714291882758888	-2
0.27902589497650121	-3.9902562010392972	2.8283312842514303	-0.00057867446670951614	-2
0.25455183252067776	-3.9539591358432409	2.8304363415876561	-0.00057813946225122241	-2
0.26748527014891699	-3.9121359022755846	2.8299443991459268	-0.0005782667291232349	-2
0.024982738725868706	-3.6528222656250002	2.8622600870572663	-0.00056999286994584438	-2
0	-3.6216015624999995	2.8665608237490487	-0.0005688836620531926	-2
0.083167931796653966	-3.7049042812804278	2.8549295982489302	-0.00057188179907605315	-2
0.064428208124685582	-3.6593739434079349	2.8607240523677788	-0.00057039098598656458	-2
0.12167728125770336	-3.7667408334325607	2.8475548111519093	-0.00057377433696868981	-2
0.13099924815049779	-3.6932272060497198	2.8540638870244228	-0.00057211059027006614	-2
0.26775226005764169	-3.8135679633582602	2.8336279945189231	-0.00057734029188681406	-2
0.21727205798549559	-3.7849750707684895	2.8400033826519944	-0.00057571344867324758	-2
0.26786129433137823	-3.8567373242016396	2.8315558691256895	-0.00057786176493246767	-2
0.1699103463590077	-3.7419179846903261	2.8468900521650884	-0.0005739514935847454	-2
0.31379788450002938	-3.9872140461477463	2.8249456531658392	-0.00057953455103262809	-2
0.29194198235989288	-3.9523415982241747	2.827044198601846	-0.00057900207828423522	-2
0.30727795635259225	-3.8743422200889808	2.8268220930112644	-0.00057906484457985105	-2
0.32009229087410029	-3.9276798897776168	2.8243477101307	-0.00057968827557799193	-2
0.049969836336407156	-3.6244031291231233	2.8656896514253756	-0.00056911079363685096	-2
0	-3.5591601562499999	2.8762665832966463	-0.00056637476874533618	-2
0.060162556720511913	-3.5861426318194005	2.8711783506425474	-0.00056769510350673888	-2
0.10548588508689671	-3.6610169497254148	2.8590769167140757	-0.00057082030938358709	-2
0.086746161414928302	-3.6154866118529223	2.8658927570876132	-0.00056906343003867391	-2
0.20457223196020338	-3.7001908223698878	2.8483941310545351	-0.00057357785475758104	-2
0.17982687411576564	-3.6544879697250741	2.8554636150714727	-0.00057176620888789865	-2
0.13349146254240052	-3.6309483624843026	2.8614792446229078	-0.00057021043288339734	-2
0.30929790048634581	-3.8018735318542078	2.8297762518984908	-0.00057832724675110274	-2
0.26320871381847699	-3.7627321475307185	2.8373542343966291	-0.00057639944269621693	-2
0.22414016525489286	-3.7406030203311036	2.8428987725850492	-0.00057498107146160737	-2
0.32882254049750509	-3.9587027431216169	2.8232346234239749	-0.00057996927940422507	-2
0.34856987402355755	-3.9841718912561954	2.821146851898372	-0.00058049831517618814	-2
0.35491854319154953	-3.8394076267888995	2.8224312692314375	-0.00058018817881267	-2
0.34869503393314577	-3.8808718000223044	2.8218543692113061	-0.00058032628482777675	-2
0.35037256058045685	-3.9358984449188044	2.8207612061371177	-0.00058059734357455582	-2
0	-3.4967187499999999	2.8876680413797327	-0.00056341547677679464	-2
0.046308004366202374	-3.5364708248645371	2.8797722785108641	-0.00056546931535170241	-2
0.090416227809281435	-3.5631860200125232	2.8738136987195895	-0.00056702074195419166	-2
0.12784228236659084	-3.569634359354743	2.8709249762346798	-0.00056777837504053054	-2
0.24753323768542668	-3.7043323141194242	2.8440261951497976	-0.00057470546637032648	-2
0.23132976782352471	-3.6475212334411204	2.8519287334008308	-0.00057269190996558179	-2
0.1608466707780713	-3.6052658903611561	2.8633754436701708	-0.00056973312490879013	-2
0.19592183175571937	-3.6185936761624515	2.8588922452982062	-0.00057089709786637126	-2
0.30793088646012312	-3.758735019600234	2.8327371191398725	-0.00057758482407378557	-2
0.346999435023707	-3.7808641467998498	2.826352912377379	-0.00057920801827290825	-2
0.28836295316543348	-3.7183228216390192	2.8382965246297482	-0.00057617594587117311	-2
0.41811385307061388	-3.9780875814730936	2.8122714247384648	-0.0005827439352202986	-2
0.38120118877363646	-3.9566617117409177	2.8169418734450855	-0.00058156342461341659	-2
0.39333484659707152	-3.8044037540406199	2.8185956147781375	-0.00058117332887095362	-2
0.40212103890440359	-3.8676915630728024	2.8149919020956125	-0.00058206785844835897	-2
0.37348925231308217	-3.9146838757401197	2.8181117662853463	-0.00058127061167229305	-2
0	-3.4654980468750001	2.8940786809518491	-0.00056174563672408339	-2
0.040026717252515553	-3.4969394168442753	2.8872678238460558	-0.00056352250646185531	-2
0.078010412850700067	-3.5095658041570994	2.8837614190533194	-0.00056444249638291097	-2
0.11946963876271285	-3.5063947743933954	2.8825279567038331	-0.00056477704813314052	-2
0.15288098204705736	-3.5341453022459506	2.8753611601913445	-0.00056664626021515863	-2
0.1885450582407425	-3.5799539144615768	2.8651159748167498	-0.00056930039018850229	-2
0.29038289729918781	-3.6458541334042467	2.8456754006987746	-0.00057431837446913678	-2
0.2596496261339894	-3.6039429234693219	2.8546963509458441	-0.00057200891827709687	-2
0.22429901971707369	-3.5913506371396551	2.8601934443437766	-0.00057058215734753467	-2
0.33569880782605638	-3.7332177892919201	2.8312276496680289	-0.000577984119429901	-2
0.37064326568474265	-3.747397752781108	2.8253084034998239	-0.00057949053690972262	-2
0.32701886622614196	-3.6968644775726904	2.8356081406682088	-0.0005768815667047129	-2
0.45275849076302588	-3.9738337548463907	2.8072864054387172	-0.00058400213538474825	-2
0.43412747646677818	-3.9194112950565749	2.8096577862748893	-0.00058340735868761344	-2
0.41156726134343641	-3.7453345425948723	2.8192272747259577	-0.00058104318330771205	-2
0.43709290254947358	-3.8375733850325333	2.8106136911342556	-0.0005831844565572609	-2
0.44483774030483025	-3.7974370177566668	2.8108496774427301	-0.00058314117877612543	-2
0.43764723889641027	-3.8784463981484572	2.8095412938502751	-0.00058344370339213187	-2
0	-3.4342773437499998	2.9008866296835998	-0.00055996836757580821	-2
0.044624188072620453	-3.4498876953124999	2.8969442331125914	-0.00056100292823118799	-2
0.096064405456214946	-3.4729982308172929	2.8903118555647844	-0.00056274747376944202	-2
0.1336776067093407	-3.4572381178591325	2.8915736226668511	-0.00056244048562414115	-2
0.18113707076385321	-3.4808123380316118	2.8833126946170382	-0.00056461352287676418	-2
0.19411064464858035	-3.5204879021301041	2.8745992712433179	-0.00056686921558759661	-2
0.21865720224264762	-3.5542507591797849	2.8665647030295731	-0.00056895014740371427	-2
0.32043145671165119	-3.6137815845287942	2.8458605795773622	-0.00057430356132128	-2
0.33928781439742134	-3.6615604045795664	2.8375460109891004	-0.00057640959911178834	-2
0.29652048845453638	-3.5769057128626236	2.8541145896280637	-0.00057219365267960885	-2
0.25818301574432057	-3.5519916720052058	2.8627424566348063	-0.00056996184111844021	-2
0.36295083441509718	-3.7071503086621687	2.8296775488883235	-0.00057839856181582448	-2
0.48740312845543787	-3.9695799282196877	2.8018671444683285	-0.00058536709155844978	-2
0.46605055322581795	-3.93888303735296	2.8048780620671132	-0.00058461063232387073	-2
0.46787233225405839	-3.8999921888022726	2.8045112658789924	-0.00058470791767305187	-2
0.42628419002464807	-3.6970927835934559	2.8205868805954846	-0.00058073486535651817	-2
0.46591612944198157	-3.7473034216392214	2.8098165762119316	-0.00058343319837028912	-2
0.47204329419556224	-3.8235021032866516	2.805267170884401	-0.00058454039935428817	-2
0.47048769637488053	-3.8611466375726176	2.8045467752733511	-0.00058470823139121909	-2
0.48358141283423306	-3.7842286341726572	2.8046569623430595	-0.00058471480632268826	-2
0	-3.3718359375000007	2.9159829729357321	-0.0005560099111159984	-2
0.03596405536209854	-3.403056640625	2.9078996150353382	-0.00055813579241987903	-2
0.091959110475247921	-3.4104364761254846	2.9043461611774122	-0.00055908752296595515	-2
0.18198855103945966	-3.4403770415965669	2.8916317470227577	-0.00056246491305722633	-2
0.15465527881816934	-3.4105671364285435	2.9006392381394019	-0.00056009917735960269	-2
0.21998249560978334	-3.4265134781139381	2.8910574369796014	-0.00056265771137723039	-2
0.24789759995950625	-3.4802082177320601	2.8768338804922196	-0.00056635171414026969	-2
0.23580934132479245	-3.5185688655537715	2.8708930987424592	-0.00056785954194486939	-2
0.34222395163509656	-3.5756154807304728	2.8479272683776111	-0.00057381661709433754	-2
0.37522877370400048	-3.6197656403421612	2.8369944123448501	-0.00057659824743738395	-2
0.3866321474905911	-3.665922752726678	2.8299806194647257	-0.00057835580679627705	-2
0.31730323847174458	-3.5029717514873733	2.8633840082387736	-0.0005698827679690619	-2
0.27562293553964529	-3.5128642171144606	2.8672353970763567	-0.00056884100185735829	-2
0.55669240384026175	-3.9610722749662819	2.7897101815181355	-0.00058841791155757361	-2
0.51722651359819327	-3.9260601506118253	2.7961831611260077	-0.00058679733267951578	-2
0.5083012871374073	-3.8832033408847799	2.7977003089089028	-0.00058642478032048769	-2
0.42176929290592585	-3.6468586218569849	2.8261158316264123	-0.00057937093454538515	-2
0.4605302594813222	-3.6686948750450767	2.8168891629287582	-0.00058170923887402204	-2
0.52176615864178677	-3.7613875539247816	2.7983865332055795	-0.00058631241284759332	-2
0.51175262977764557	-3.7180341342330849	2.8029252288951323	-0.00058520613435844809	-2
0.50596987364518098	-3.8437584711927033	2.7986202365140755	-0.00058620584649027264	-2
0.55061765608009205	-3.7952605646389892	2.7912512991388021	-0.00058808334468877382	-2
0	-3.3093945312500006	2.9329240516727459	-0.00055154173663847831	-2
0.058459752567279727	-3.340818795347456	2.9232877579118104	-0.00055409985343515583	-2
0.12205417448009261	-3.3591315034790745	2.9155882380966172	-0.000556164552371381	-2
0.21467596484460646	-3.3802447302607979	2.902515997651415	-0.00055968463234460156	-2
0.18058035194587516	-3.3485202053988061	2.9138642272129229	-0.00055668218171170121	-2
0.25693138765972906	-3.4414079889219598	2.8836043852212216	-0.0005646304579060759	-2
0.26120660821371888	-3.3822082791692107	2.8965179467907012	-0.00056131783608132872	-2
0.31722224885157185	-3.45893036207781	2.8718505423980143	-0.00056773588368001662	-2
0.38497955110707766	-3.5780647693558771	2.8408537226164903	-0.00057565748132882536	-2
0.37056195984337581	-3.5230158045415267	2.8516839031414962	-0.00057292817481984534	-2
0.41598097024499492	-3.607304160736549	2.8316556766160015	-0.00057799656115807389	-2
0.35844119919111667	-3.474443217177678	2.8622345716666633	-0.00057025688730090603	-2
0.58347166254245342	-3.9307359222175915	2.7838821734414174	-0.00058987638768653102	-2
0.62564255725399165	-3.9501516435075574	2.7759583559717287	-0.00059185196990577105	-2
0.58148792870065191	-3.8903194924547244	2.7838032542367284	-0.00058990386815872039	-2
0.54738958041757746	-3.861101668396179	2.7904794823058707	-0.00058824213726003569	-2
0.45494676557844516	-3.6245580527875783	2.8224674064032929	-0.00058033853665755218	-2
0.50127107592879683	-3.6411194113039675	2.8113790149591473	-0.00058315390694099734	-2
0.56303122722839671	-3.7554635413629098	2.7900834303502307	-0.00058840812746769743	-2
0.54387907196030283	-3.680451364598079	2.7987975093347401	-0.00058629570561959099	-2
0.57775731029800914	-3.7164629992164508	2.7888796386586514	-0.00058875271205113366	-2
0.57196670008063855	-3.8293069567810001	2.786049783904593	-0.00058936679459135096	-2
0.59042743859816682	-3.785843570436711	2.7830256400540412	-0.00059015160819939972	-2
0	-3.2469531250000006	2.9518799035956338	-0.00054650821616204781	-2
0.05996935416197461	-3.2841630604031478	2.9394688203324391	-0.00054982251777283247	-2
0.09680489681846087	-3.327236184230618	2.9254920443713739	-0.00055354210824080929	-2
0.15659868686625622	-3.3107105394272636	2.9263420003073861	-0.00055338051029228794	-2
0.22353536775564448	-3.3365389560520415	2.9127649495357293	-0.00055704047432282133	-2
0.29212462789591309	-3.4227397560755692	2.8830112642578754	-0.0005648447233817215	-2
0.31005774027226901	-3.3676380541236837	2.8932199810595147	-0.00056228031384841586	-2
0.25833926779385785	-3.3086575597230032	2.9161127151073973	-0.00055624705369423087	-2
0.33438469413718297	-3.4202307664814979	2.8771993764088544	-0.00056642048608576256	-2
0.4192802661370999	-3.552422982183213	2.8384796907944621	-0.00057632352127082957	-2
0.39896417580675642	-3.5079111960099723	2.8492173150789237	-0.00057361195639893988	-2
0.39261727988730427	-3.4763746777698485	2.8559166037506158	-0.00057192714528294135	-2
0.45055791142071411	-3.5818430639954721	2.8284597429001392	-0.00057886731717926381	-2
0.37607470396592391	-3.4275895237121152	2.8684987813921956	-0.0005687321692777348	-2
0.61543429067605915	-3.9059203344243367	2.7769264154762134	-0.00059161462346203034	-2
0.66011763396085654	-3.9446913277781954	2.7683696465445684	-0.0005937386429650368	-2
0.65181911046995367	-3.9154787581378994	2.7693126572929319	-0.00059350686013316266	-2
0.59821407618244848	-3.8564601371078209	2.780274656575489	-0.00059079647074715804	-2
0.52124894659249588	-3.5961627098114359	2.8117967416216154	-0.00058312736482672928	-2
0.490102214626911	-3.5682749648739214	2.8220091696291161	-0.00058055858252374745	-2
0.58335136959557365	-3.6506770370633363	2.7920525070688935	-0.00058805020089576412	-2
0.60197476227372215	-3.7478876422399172	2.7816888593927129	-0.00059052021939293555	-2
0.62575677116622452	-3.6711293685191819	2.7800819897391373	-0.00059102956636449509	-2
0.6490232293944278	-3.7120584274610042	2.7718562580485697	-0.0005930247209483062	-2
0.61129167201173018	-3.8210313854869025	2.7777212369111108	-0.00059145247186805311	-2
0.63210032114463133	-3.7849136045821195	2.7734589064511281	-0.00059254067887079	-2
0	-3.1845117187500005	2.9728816536593952	-0.00054088951282187602	-2
0.04515023223887888	-3.241116541312866	2.9532486246108993	-0.00054615338808072496	-2
0.11617309063475095	-3.2914631429748091	2.9346136036917962	-0.00055115521459468545	-2
0.086678267572334114	-3.2224609399635411	2.9578950470467285	-0.00054494417534208613	-2
0.15428264298854819	-3.265996704413622	2.9396969548995844	-0.00054986156606512599	-2
0.19981420572520331	-3.2712649364088544	2.93378058836926	-0.00055150238825635669	-2
0.23959306134892772	-3.2697004707324906	2.9296916071313892	-0.00055266535799216579	-2
0.36703000438534883	-3.3570571657239832	2.886241098023353	-0.00056422913123445762	-2
0.33088504816903441	-3.3211090544884825	2.9018358322942119	-0.00056013747087552438	-2
0.2793366407620328	-3.2719923701674238	2.9235905952343062	-0.00055436690638186034	-2
0.39578096509491373	-3.3869559628282064	2.8737721981443971	-0.00056747206118986575	-2
0.42907114577372907	-3.5210619914784194	2.8414463465149931	-0.00057561872186402175	-2
0.45457712739743406	-3.5462337896063931	2.8325347625116031	-0.00057788343502746615	-2
0.42462441781865973	-3.4885104988469173	2.8477274455584265	-0.0005740549991595298	-2
0.41903252575097116	-3.4546038298825139	2.8550431766073028	-0.00057222768317241384	-2
0.42049363268631346	-3.4202702220953647	2.8615974765063061	-0.00057060468790829549	-2
0.64674372931675339	-3.8855374785515502	2.7698173712995238	-0.00059338805569514503	-2
0.69459271066772144	-3.939231012048833	2.7604218363047881	-0.00059570840373522475	-2
0.67642234177508942	-3.8976764906850105	2.7632612486986741	-0.00059501014594339863	-2
0.64480734886527924	-3.8535308216849615	2.7699377001925942	-0.00059336985456408242	-2
0.58307574584904442	-3.5883604924401942	2.7980233320617409	-0.00058666315306315229	-2
0.54260696756209637	-3.5409716151990156	2.8136482633761468	-0.00058278336328443402	-2
0.48209634132984863	-3.5169770316763969	2.8310985487118159	-0.00057833069130162928	-2
0.62987554271733148	-3.6242299904288724	2.7825182161874564	-0.00059051007722020412	-2
0.65028702895497525	-3.7507450123253001	2.7699971198346063	-0.00059343747944639712	-2
0.67646940237820175	-3.6693788923192856	2.766757526653747	-0.00059436910507411128	-2
0.69363928465447489	-3.7105851781635475	2.7600751874403655	-0.00059595858618958174	-2
0.68717760226692348	-3.7470889810440187	2.7606299505141871	-0.00059576946525936706	-2
0.67365204363281361	-3.7816047778282327	2.7634434513774475	-0.00059503322957701822	-2
0.68867711547226873	-3.8293771774679235	2.7594046050282142	-0.00059599552886869698	-2
0	-3.1220703124999996	2.9960514411061254	-0.00053463814490822402	-2
0.049418574425598681	-3.190339259388189	2.9701993210044115	-0.00054162396912751454	-2
0.052113663962641853	-3.1412187586908109	2.9879876070402602	-0.00053683882638084417	-2
0.096164483019765934	-3.1750125791840609	2.9737400774067044	-0.00054071877459065739	-2
0.14455075617926344	-3.1746904085625576	2.9706419541045332	-0.00054162474632782093	-2
0.16683568796183357	-3.2219138445302589	2.952726505800666	-0.00054643432815388519	-2
0.22411189934688952	-3.2063398754519263	2.9518303158676766	-0.00054680892425241654	-2
0.25901351712983228	-3.2349492001823714	2.9380088617988842	-0.0005505443168422467	-2
0.39127930109968345	-3.3214153598744258	2.8906188899080281	-0.0005632210474472224	-2
0.32157664404469199	-3.270988418280059	2.9173175455097806	-0.00055613271493217995	-2
0.36250994905130107	-3.2893109816983337	2.9048129261015068	-0.00055949913269125846	-2
0.33097251797799715	-3.22904392394909	2.9285382995374194	-0.0005532769199235513	-2
0.43630889475538198	-3.3781217833281851	2.8674328547838326	-0.00056922348388636001	-2
0.45275921015386483	-3.5012465895733476	2.8398522213449278	-0.00057608824581523025	-2
0.45062347452207147	-3.4410781723051529	2.8511016093790782	-0.00057331897600428961	-2
0.47166613327077828	-3.476827277441592	2.8400299996102132	-0.00057611699364535003	-2
0.46344234480213248	-3.4067786865112843	2.8551863699314928	-0.00057237240796371839	-2
0.67281321113066961	-3.8668677765993955	2.7635356418410475	-0.00059495231596009375	-2
0.72885622381855042	-3.9325708597704305	2.7521010375123325	-0.0005977643381923156	-2
0.70658209985911902	-3.9094457491325936	2.756524169603229	-0.00059667439734422702	-2
0.70188600663970679	-3.8776832862456105	2.756722773550504	-0.0005966328066213391	-2
0.58842868832832007	-3.5428151868930535	2.8019188665042587	-0.00058579283088524355	-2
0.64275719734112213	-3.5722876383979711	2.7838504312500754	-0.00059030413319183955	-2
0.52766401091753468	-3.4837096729426289	2.8257810881351815	-0.00057981998792178146	-2
0.59315334626713634	-3.4972004254892051	2.8069539251937505	-0.00058465227579989406	-2
0.68314269396838589	-3.6190767819190177	2.7682689597490269	-0.00059410329738487314	-2
0.7282288253565361	-3.6506518083835577	2.7529157921921357	-0.00059785146565578503	-2
0.73172925583063686	-3.6926200951856241	2.7499859537485891	-0.00059849026107808908	-2
0.73118607145825909	-3.7347306052910847	2.7489559306352644	-0.00059867313634044445	-2
0.72877467527421214	-3.7905169526064904	2.748952282061	-0.00059860649710619194	-2
0.73024724437060629	-3.8439691656234372	2.7489400027127542	-0.00059856765675399097	-2
0	-3.0596289062499995	3.0214114252922477	-0.000527733878182674	-2
0.059365538085525256	-3.0836642250772384	3.0104064603539991	-0.00053076769139081604	-2
0.10594369640243738	-3.1276237386222676	2.9907982963620778	-0.00053614269291484852	-2
0.16664293994366369	-3.1230000693647941	2.9879665570934182	-0.00053703265662910916	-2
0.19660491897789351	-3.1705630335513568	2.9672656323047786	-0.00054264513466789968	-2
0.24332552195214616	-3.1655054158402032	2.9634181059388629	-0.00054381432815344799	-2
0.28454780265294016	-3.1880690550195303	2.9496202898845132	-0.00054760013878250716	-2
0.40660295137522312	-3.2811220296870331	2.898289547263289	-0.00056136153507976806	-2
0.45028234480469859	-3.320793883549829	2.87814618404916	-0.00056663307878379511	-2
0.36734144665382845	-3.2519551456237092	2.9147274853844705	-0.00055699267236602686	-2
0.33773633714978846	-3.1926218064669767	2.9391366482283927	-0.00055056905497347607	-2
0.37142486684004106	-3.2145101521332542	2.9255080904790467	-0.00055425558528544492	-2
0.48479159698588914	-3.3595723146423189	2.8605190138927092	-0.00057117705328182846	-2
0.48713743295051676	-3.438337916684489	2.8435201523943712	-0.00057533662642910051	-2
0.50202370608532876	-3.3984768329218435	2.847789694435348	-0.00057438199757589526	-2
0.7631197369693794	-3.9259107074920281	2.7432353768088076	-0.00059994712419235072	-2
0.74079201770409919	-3.9025098729082486	2.7478693485593828	-0.00059880972274841662	-2
0.73311072081082196	-3.8736734295053608	2.748853423967569	-0.00059857487118002975	-2
0.63355684028926518	-3.5244373785244822	2.7918940374309793	-0.00058841476605680956	-2
0.68946543929159609	-3.5727956749869492	2.7702074827453305	-0.00059374657724879664	-2
0.56129796988414649	-3.4384119194331433	2.8248919100268957	-0.00058023342599436813	-2
0.60847635050604221	-3.4508725465471199	2.8097369395647913	-0.00058412461074009239	-2
0.73269079510527668	-3.5729987533786312	2.7569469725580529	-0.00059706802354850198	-2
0.76051920593533151	-3.6060752129341238	2.7456115854398671	-0.00059978363088253426	-2
0.77705236534780175	-3.6677097276510202	2.7371806024717191	-0.00060169778520551204	-2
0.79898494596038172	-3.7145463861002166	2.7292364369886855	-0.00060355314434882993	-2
0.77699906755623538	-3.7646561884038752	2.7353920168417014	-0.00060196583436802648	-2
0.79668947834252757	-3.7998739670983457	2.7299209307227037	-0.00060326481276173677	-2
0.77274393890051818	-3.8323488089599596	2.7372531958878183	-0.00060144378387394439	-2
0.76254724277034791	-3.8785758743053527	2.7413154055988787	-0.00060042532508977338	-2
0	-2.9971874999999994	3.0488408816527004	-0.00052019895367413146	-2
0.078126887019004401	-3.043188074492654	3.026758234390635	-0.000526325559757671	-2
0.054143300338073255	-3.0055703320049934	3.0442011469194976	-0.0005215079839722272	-2
0.12166674445225623	-3.0688141965061906	3.0133100698308986	-0.00053007585727134665	-2
0.18083009913680048	-3.0756256620532532	3.0054184200767424	-0.00053237243889039682	-2
0.22011603744552183	-3.1056627225834474	2.9888314875000459	-0.00053697134681419685	-2
0.28123855075568688	-3.1377385923608809	2.9681178350335107	-0.00054272438372197549	-2
0.32789272650964119	-3.1569087385333101	2.9531726838008208	-0.00054687517973425	-2
0.40317249381476011	-3.240338867507699	2.9108762818744918	-0.00055816268174692352	-2
0.45715854994523691	-3.2693412547835048	2.8901267684917951	-0.00056370512201935822	-2
0.52665995205570892	-3.297403423354393	2.8647536185715214	-0.0005704367976754628	-2
0.36613104610944414	-3.1688297827034129	2.9416748638895416	-0.00055007161140117325	-2
0.40142626449149432	-3.1877646167213181	2.9278442945495726	-0.00055383910579595087	-2
0.53522509921920258	-3.3718652824118336	2.8448276717792851	-0.00057530873502669518	-2
0.83164676327103737	-3.9125904029352232	2.7242562305762883	-0.00060459456136557552	-2
0.68847803372378147	-3.4881555324631366	2.7801141537728631	-0.00059156177490248733	-2
0.65703153919236434	-3.4460289448073311	2.7959547436595491	-0.0005877048486369451	-2
0.71488840960755728	-3.5336090631457413	2.7664183500891024	-0.00059483938535536286	-2
0.58732330469389959	-3.4066506247500277	2.8236300008582611	-0.00058072033594737458	-2
0.62811399239946208	-3.4019370604495527	2.8124196819415221	-0.00058367875625167545	-2
0.79424678352665956	-3.5845546932401615	2.7358574964042655	-0.00060226735380183567	-2
0.75742121562777198	-3.5381039170759911	2.7519690819325602	-0.00059844077757889352	-2
0.81920960211736571	-3.6158203284661532	2.725596713248235	-0.0006046867981929603	-2
0.8219206984451265	-3.6752524732822236	2.7225032908174205	-0.00060527885549232314	-2
0.83017081730506137	-3.749428326776874	2.7192196799384725	-0.00060593450543260292	-2
0.83682595204901711	-3.7957426608262441	2.7178212528149306	-0.0006062161356882507	-2
0.81995835700946806	-3.8289031947429306	2.7237527788080786	-0.00060474443461414886	-2
0.81202760412469699	-3.8652520589719357	2.727341821223058	-0.0006038496395447345	-2
0	-2.9347460937499994	3.0786216434694085	-0.0005119281075416874	-2
0.039915945722160819	-2.9603390807710563	3.065727502189048	-0.00051553617964523383	-2
0.10869191810741116	-3.0106905999059355	3.0393765280668688	-0.00052292573495552378	-2
0.084350171870322052	-2.9768884993157823	3.0562462148914826	-0.0005182282343983225	-2
0.16557778532454909	-3.0285833738705561	3.0269431275612533	-0.00052648517331212966	-2
0.24860504406117298	-3.0788447152364729	2.9957422550938264	-0.0005352439566447823	-2
0.23836698253326002	-3.0410821529272267	3.0129646971605704	-0.00053056958201295383	-2