[Format]      =  4.0
[Frequency]   =  0
[Precision]   =  1e-008
[MinAngle]    =  30
[DoSmartMesh] =  1
[Depth]       =  1
[LengthUnits] =  millimeters
[ProblemType] =  axisymmetric
[Coordinates] =  cartesian
[ACSolver]    =  0
[PrevType]    =  0
[PrevSoln]    =  ""
[Comment]     =  "Add comments here."
[PointProps]   = 0
[BdryProps]   = 1
  <BeginBdry>
    <BdryName> = "Asymptotic"
    <BdryType> = 2
    <A_0> = 0
    <A_1> = 0
    <A_2> = 0
    <Phi> = 0
    <c0> = 3978873.5772973835
    <c0i> = 0
    <c1> = 0
    <c1i> = 0
    <Mu_ssd> = 0
    <Sigma_ssd> = 0
    <innerangle> = 0
    <outerangle> = 0
  <EndBdry>
[BlockProps]  = 4
  <BeginBlock>
    <BlockName> = "Air"
    <Mu_x> = 1
    <Mu_y> = 1
    <H_c> = 0
    <H_cAngle> = 0
    <J_re> = 0
    <J_im> = 0
    <Sigma> = 0
    <d_lam> = 0
    <Phi_h> = 0
    <Phi_hx> = 0
    <Phi_hy> = 0
    <LamType> = 0
    <LamFill> = 1
    <NStrands> = 0
    <WireD> = 0
    <BHPoints> = 0
  <EndBlock>
  <BeginBlock>
    <BlockName> = "Coil"
    <Mu_x> = 1
    <Mu_y> = 1
    <H_c> = 0
    <H_cAngle> = 0
    <J_re> = 0
    <J_im> = 0
    <Sigma> = 37.700000000000003
    <d_lam> = 0
    <Phi_h> = 0
    <Phi_hx> = 0
    <Phi_hy> = 0
    <LamType> = 0
    <LamFill> = 1
    <NStrands> = 0
    <WireD> = 0
    <BHPoints> = 0
  <EndBlock>
  <BeginBlock>
    <BlockName> = "LinearIron"
    <Mu_x> = 2100
    <Mu_y> = 2100
    <H_c> = 0
    <H_cAngle> = 0
    <J_re> = 0
    <J_im> = 0
    <Sigma> = 0
    <d_lam> = 0
    <Phi_h> = 0
    <Phi_hx> = 0
    <Phi_hy> = 0
    <LamType> = 0
    <LamFill> = 1
    <NStrands> = 0
    <WireD> = 0
    <BHPoints> = 0
  <EndBlock>
  <BeginBlock>
    <BlockName> = "Iron"
    <Mu_x> = 2100
    <Mu_y> = 2100
    <H_c> = 0
    <H_cAngle> = 0
    <J_re> = 0
    <J_im> = 0
    <Sigma> = 0
    <d_lam> = 0
    <Phi_h> = 0
    <Phi_hx> = 0
    <Phi_hy> = 0
    <LamType> = 0
    <LamFill> = 1
    <NStrands> = 0
    <WireD> = 0
    <BHPoints> = 13
      0	0
      0.29999999999999999	40
      0.80000000000000004	80
      1.1200000000000001	160
      1.3200000000000001	318
      1.46	796
      1.54	1590
      1.6200000000000001	3380
      1.74	7960
      1.8700000000000001	15900
      1.99	31800
      2.0459999999999998	55100
      2.0800000000000001	79600
  <EndBlock>
[CircuitProps]  = 1
  <BeginCircuit>
    <CircuitName> = "icoil"
    <TotalAmps_re> = 20
    <TotalAmps_im> = 0
    <CircuitType> = 1
  <EndCircuit>
[NumPoints] = 10
0	-40	0	0
0	40	0	0
10	40	0	0
10	-40	0	0
50	-50	0	0
50	50	0	0
100	50	0	0
100	-50	0	0
0	-200	0	0
0	200	0	0
[NumSegments] = 10
0	1	-1	0	0	0
1	2	-1	0	0	0
2	3	-1	0	0	0
0	3	-1	0	0	0
4	5	-1	0	0	0
5	6	-1	0	0	0
6	7	-1	0	0	0
4	7	-1	0	0	0
8	0	-1	0	0	0
1	9	-1	0	0	0
[NumArcSegments] = 1
8	9	180	2.5	1	0	0	2.5
[NumHoles] = 0
[NumBlockLabels] = 3
5	0	4	1	0	0	0	1	0
75	0	2	1	1	0	0	200	0
30	100	1	1	0	0	0	1	0
