[Format]      =  1
[Precision]   =  1e-008
[Frequency]   =  0
[MinAngle]    =  30
[DoSmartMesh] =  1
[Depth]       =  1
[LengthUnits] =  millimeters
[ProblemType] =  planar
[Coordinates] =  cartesian
[Comment]     =  "Add comments here."
[PointProps]   = 0
[BdryProps]   = 3
  <BeginBdry>
    <BdryName> = "V=0"
    <BdryType> = 0
    <vsr> = 0
    <vsi> = 0
    <qsr> = 0
    <qsi> = 0
    <c0r>  = 0
    <c0i>  = 0
    <c1r>  = 0
    <c1i>  = 0
  <EndBdry>
  <BeginBdry>
    <BdryName> = "V=1"
    <BdryType> = 0
    <vsr> = 1
    <vsi> = 0
    <qsr> = 0
    <qsi> = 0
    <c0r>  = 0
    <c0i>  = 0
    <c1r>  = 0
    <c1i>  = 0
  <EndBdry>
  <BeginBdry>
    <BdryName> = "Insulation"
    <BdryType> = 2
    <vsr> = 0
    <vsi> = 0
    <qsr> = 0
    <qsi> = 0
    <c0r>  = 0
    <c0i>  = 0
    <c1r>  = 0
    <c1i>  = 0
  <EndBdry>
[BlockProps]  = 1
  <BeginBlock>
    <BlockName> = "Copper"
    <ox> = 58000000
    <oy> = 58000000
    <ex> = 1
    <ey> = 1
    <ltx> = 0
    <lty> = 0
  <EndBlock>
[ConductorProps]  = 0
[NumPoints] = 4
0	0	0	0	0
5	0	0	0	0
5	1	0	0	0
0	1	0	0	0
[NumSegments] = 4
0	1	-1	3	0	0	0
1	2	-1	1	0	0	0
2	3	-1	3	0	0	0
3	0	-1	2	0	0	0
[NumArcSegments] = 0
[NumHoles] = 0
[NumBlockLabels] = 1
2.5	0.5	1	0.10000000000000001	0	0
[Solution]
1868
0	0	1.0000000000000004	0	-1
0.0060000000000000001	0	0.99880000000000058	0	-2
0	0.0060000000000000001	1.0000000000000004	0	-1
0.025484375	0	0.99490312499999967	0	-2
0.012621438754385053	0.012621438754385053	0.99747571224912246	0	-2
0	0.021437500000000005	1.0000000000000007	0	-1
0.044968750000000002	0	0.99100624999999953	0	-2
0.031124233984146894	0.01861301818783892	0.993775153203171	0	-2
0.0147812624557828	0.029156250000000005	0.9970437475088435	0	-2
0	0.036875000000000005	1.0000000000000007	0	-1
0.083937499999999998	0	0.98321249999999916	0	-2
0.061275247116130069	0.026584248206292314	0.98774495057677369	0	-2
0.032590646652746066	0.03882425625972695	0.99348187066945037	0	-2
0.017467426383367297	0.052312500000000005	0.99650651472332608	0	-2
0	0.067750000000000005	1.0000000000000007	0	-1
0.16187499999999999	0	0.96762499999999851	0	-2
0.11523615954943373	0.049632703796236244	0.97695276809011244	0	-2
0.046658421693265811	0.069819567728347215	0.9906683156613465	0	-2
0.023001410197096079	0.076175052241440111	0.99539971796058024	0	-2
0	0.098625000000000004	1.0000000000000007	0	-1
0.17061400881979322	0.054941004455178633	0.96587719823604024	0	-2
0.23981249999999998	0	0.95203749999999876	0	-2
0.21822597380603997	0.043860092430643149	0.95635480523879102	0	-2
0.090492988193425605	0.092154270610457861	0.98190140236131451	0	-2
0.17105101567868386	0.11057097183519482	0.96578979686426214	0	-2
0.04502140011137528	0.11093305785525702	0.9909957199777244	0	-2
0	0.1295	1.0000000000000007	0	-1
0.26367352029617436	0.038985769419329221	0.94726529594076436	0	-2
0.31774999999999998	0	0.93644999999999889	0	-2
0.24862267360583329	0.082144899631781385	0.950275465278832	0	-2
0.086877725094119479	0.14784276201579546	0.98262445498117545	0	-2
0.1327469428953458	0.17356544174755867	0.97345061142093103	0	-2
0.22476922460668394	0.13710677582471717	0.95504615507866275	0	-2
0.18432417922758138	0.1838333571449465	0.9631351641544833	0	-2
0.038929530002566375	0.16002915432584758	0.99221409399948635	0	-2
0	0.19125	1.0000000000000007	0	-1
0.32535691828961016	0.084700467797681228	0.93492861634207647	0	-2
0.39568749999999997	0	0.9208624999999997	0	-2
0.37211132174024536	0.051973191735288769	0.92557773565195067	0	-2
0.28541296689107903	0.13076901877690178	0.94291740662178303	0	-2
0.077305792265551926	0.21060226153870204	0.9845388415468892	0	-2
0.13894808669727088	0.22578791976064266	0.9722103826605456	0	-2
0.24538442207433847	0.1933634065198826	0.95092311558513154	0	-2
0.20551537386323776	0.24843407786627941	0.95889692522735215	0	-2
0	0.253	1.0000000000000007	0	-1
0.047647166636811747	0.24820080755399537	0.99047056667263822	0	-2
0.33873100181685017	0.13664759903734258	0.93225379963662913	0	-2
0.41534498366796418	0.089227712491950398	0.91693100326640675	0	-2
0.47362499999999996	0	0.9052749999999995	0	-2
0.458156278767261	0.053543400705868459	0.90836874424654701	0	-2
0.31578349575801146	0.20405494717347891	0.93684330084839718	0	-2
0.097412285722143763	0.26168848633326725	0.98051754285557147	0	-2
0.17455678823346646	0.30896411853705741	0.96508864235330694	0	-2
0.27208641005788015	0.25466178345295926	0.94558271798842364	0	-2
0.23115815151231656	0.30575471480836836	0.95376836969753587	0	-2
0	0.31474999999999997	1.0000000000000007	0	-1
0.052839151947826575	0.29580677383113441	0.9894321696104349	0	-2
0.37925923288198393	0.17178779028547492	0.92414815342360312	0	-2
0.43806793431108576	0.1565436571702199	0.91238641313778235	0	-2
0.47292838549050364	0.10728316213707054	0.9054143229018996	0	-2
0.55156249999999996	0	0.88968750000000008	0	-2
0.54795805375367923	0.051901673092625972	0.89040838924926424	0	-2
0.52906884463739601	0.10891574628239112	0.89418623107252049	0	-2
0.36723413445058539	0.22670019945006245	0.92655317310988261	0	-2
0.33033049382293067	0.27698963909187302	0.93393390123541353	0	-2
0.10176537072804799	0.32332125932732725	0.97964692585439073	0	-2
0.15211407340286792	0.35913405306041285	0.96957718531942683	0	-2
0.20631098722689367	0.36826599212046268	0.95873780255462127	0	-2
0.28766377925507963	0.30115812577797163	0.94246724414898386	0	-2
0.27011124546332599	0.34694538206397268	0.94597775090733505	0	-2
0	0.3765	1.0000000000000007	0	-1
0.053907411058083145	0.35569888880092371	0.98921851778838354	0	-2
0.45014445206504017	0.21608359903407531	0.90997110958699146	0	-2
0.49858313576164481	0.16190624531505393	0.90028337284767113	0	-2
0.59901934202051776	0.041925674742222634	0.88019613159589627	0	-2
0.62949999999999995	0	0.87410000000000065	0	-2
0.58229494819125704	0.09098815903008356	0.88354101036174881	0	-2
0.5751695382995613	0.14099599765426524	0.88496609234008772	0	-2
0.39270736863139089	0.27681097686284806	0.9214585262737216	0	-2
0.37180628018646028	0.31533949910742087	0.92563874396270751	0	-2
0.32886950355047279	0.32415628631391913	0.93422609928990619	0	-2
0.10366217743681493	0.38507844660391499	0.97926756451263752	0	-2
0.20621440190230222	0.4165339542156879	0.9587571196195398	0	-2
0.16585049092803333	0.44300205169949508	0.96682990181439366	0	-2
0.25349468198881842	0.42624892248591939	0.94930106360223643	0	-2
0.31358744484440237	0.37189801120064081	0.93728251103111926	0	-2
0	0.43825000000000003	1.0000000000000007	0	-1
0.053030889577618708	0.41400333061804273	0.98939382208447657	0	-2
0.48952024022227014	0.23401280298284205	0.90209595195554571	0	-2
0.44655440367855387	0.27021428431122413	0.91068911926428897	0	-2
0.52403968991142191	0.20172864221006553	0.89519206201771517	0	-2
0.56682821051229659	0.18586259205796296	0.88663435789754097	0	-2
0.6319880418212358	0.081924394058007638	0.87360239163575326	0	-2
0.70743749999999994	0	0.85851250000000012	0	-2
0.68709121097596582	0.047978422630408052	0.86258175780480706	0	-2
0.62845999232574923	0.16381059289904149	0.87430800153485011	0	-2
0.42954529833172361	0.32172845586907295	0.91409094033365523	0	-2
0.36175122946896826	0.35800328327622166	0.92764975410620687	0	-2
0.40936840471227187	0.36550745734839241	0.91812631905754538	0	-2
0.10461182064264098	0.44640419568022244	0.97907763587147212	0	-2
0.22151077477330991	0.46199843138540658	0.95569784504533828	0	-2
0.18350653092943126	0.48762021024154506	0.96329869381411426	0	-2
0.1376937488616769	0.48902985598083581	0.97246125022766494	0	-2
0.30389217585031675	0.42157455365867802	0.93922156482993702	0	-2
0.26871710130814414	0.4720501474865445	0.94625657973837207	0	-2
0.35447924457609431	0.42321942118717709	0.92910415108478173	0	-2
0	0.5	1.0000000000000004	0	-1
0.056118567525837604	0.48064389327005008	0.98877628649483207	0	-2
0.49299187148662205	0.27713886034499724	0.90140162570267557	0	-2
0.53025924326903795	0.24858135397444617	0.89394815134619221	0	-2
0.48760050851438175	0.32377920098455976	0.90247989829712338	0	-2
0.60173903694006547	0.21525346208201485	0.87965219261198668	0	-2
0.65871330159997776	0.12409494825506832	0.86825733968000474	0	-2
0.69764727279865368	0.099012431623893712	0.86047054544027002	0	-2
0.78537499999999993	0	0.84292499999999992	0	-2
0.73680157133280311	0.063623888054771843	0.85263968573343951	0	-2
0.65555065610678964	0.215059731256704	0.86888986877864249	0	-2
0.70410993788808651	0.1448733159785843	0.85917801242238279	0	-2
0.47616699255173206	0.3758117373684966	0.90476660148965338	0	-2
0.39946438032334292	0.44313936639865348	0.92010712393533234	0	-2
0.43325298975121923	0.40737910174139685	0.91334940204975668	0	-2
0.093444727026705532	0.51850824723607958	0.98131105459465884	0	-2
0.22354832911242592	0.50992385344551916	0.9552903341775153	0	-2
0.18462356733158491	0.53271019377354667	0.96307528653368324	0	-2
0.14068674244269849	0.54290380961500584	0.97186265151146067	0	-2
0.31673746184245916	0.47689981094349337	0.93665250763150909	0	-2
0.28840568246490067	0.51726655624061146	0.94231886350702088	0	-2
0.39350852562817296	0.49197577136745341	0.9212982948743661	0	-2
0	0.56174999999999997	1.0000000000000007	0	-1
0.069501631971006408	0.56577922570031847	0.98609967360579853	0	-2
0.54531018533472653	0.3068183413673326	0.89093796293305438	0	-2
0.58998732459362146	0.27118140753316028	0.88200253508127513	0	-2
0.56094092241682958	0.36984396418707832	0.88781181551663335	0	-2
0.7715124069083148	0.10338022092507981	0.84569751861833686	0	-2
0.86331249999999993	0	0.82733749999999995	0	-2
0.7885062854844298	0.05303943510983835	0.84229874290311424	0	-2
0.85198440453915902	0.057127542517736329	0.829603119092168	0	-2
0.70934912895130808	0.21626480742642623	0.85813017420973881	0	-2
0.68277179827133883	0.26147887933413672	0.86344564034573257	0	-2
0.74527572331346104	0.17805555956566133	0.85094485533730857	0	-2
0.52176299977860319	0.40336376551128483	0.89564740004427956	0	-2
0.4914255651496231	0.4450546129864022	0.90171488697007562	0	-2
0.44526840378733046	0.45257500493686498	0.91094631924253422	0	-2
0.22334739514632762	0.55422038686534081	0.95533052097073468	0	-2
0.26946861274947476	0.56530848505262155	0.94610627745010556	0	-2
0.17428754760836282	0.58794528530040924	0.96514249047832767	0	-2
0.10748581794980409	0.60272538681809751	0.97850283641003932	0	-2
0.36772484365043201	0.53624092412704383	0.92645503126991358	0	-2
0.32008208260353804	0.55506562399152293	0.93598358347929211	0	-2
0.41549256342956314	0.53442294086084619	0.91690148731408816	0	-2
0.44863243570077438	0.49957287367059489	0.91027351285984592	0	-2
0	0.62349999999999994	1.0000000000000007	0	-1
0.054411918893137561	0.61657408533237545	0.98911761622137273	0	-2
0.61305512298434506	0.32346825581133437	0.87738897540313132	0	-2
0.56952293805516774	0.42279248134326597	0.88609541238896694	0	-2
0.65013874939495964	0.38255633312293125	0.86997225012100876	0	-2
0.82049135215165458	0.095465160039990601	0.83590172956966935	0	-2
0.84145397111507336	0.1404335252777805	0.83170920577698537	0	-2
0.79800552678338676	0.18196081310200191	0.84039889464332274	0	-2
0.94124999999999992	0	0.81175000000000042	0	-2
0.90228124999999992	0.027765846422755942	0.81954375000000013	0	-2
0.90364580359791702	0.084015861694982361	0.81927083928041722	0	-2
0.72549796235945074	0.29757183979775159	0.85490040752811058	0	-2
0.76028717984050065	0.22875407386437516	0.84794256403190038	0	-2
0.67661847724256963	0.32475681409277213	0.86467630455148681	0	-2
0.54649073791588731	0.47123537781116837	0.89070185241682243	0	-2
0.50251432835014376	0.51346902672165462	0.89949713432997225	0	-2
0.22956001102629919	0.59807955525007006	0.95408799779474029	0	-2
0.28447350342134603	0.62677823760000506	0.94310529931573028	0	-2
0.16027879125381908	0.65638436840029135	0.96794424174923654	0	-2
0.10971183301045684	0.65333525926838121	0.97805763339790941	0	-2
0.36308074261003642	0.58725694446071697	0.92738385147799252	0	-2
0.41655717108465029	0.5822133868369459	0.9166885657830699	0	-2
0.4637592993704695	0.55312228469083957	0.90724814012590682	0	-2
0	0.68524999999999991	1.0000000000000007	0	-1
0.070370205482890191	0.68525000000000003	0.98592595890342227	0	-2
0.60667746202836526	0.46148017718808038	0.87866450759432757	0	-2
0.7048445672034056	0.4339548338351249	0.85903108655932015	0	-2
0.65798847261330706	0.4658827068390578	0.86840230547733932	0	-2
0.73754446547292618	0.38763421933191977	0.8524911069054163	0	-2
0.85654681298706448	0.19556966163883596	0.82869063740258764	0	-2
0.92532559315206508	0.13639275695976502	0.81493488136958758	0	-2
0.83025456476814696	0.2611691877372484	0.8339490870463715	0	-2
0.98021874999999992	0	0.80395624999999948	0	-2
0.94625509384309914	0.046628687189652483	0.81074898123138017	0	-2
0.95983383570838265	0.091516360361300481	0.80803323285832418	0	-2
0.7811659333876515	0.30298514694918316	0.84376681332247061	0	-2
0.5873089680609076	0.53252706522031779	0.8825382063878191	0	-2
0.53968890060749819	0.54788601541386073	0.89206221987850087	0	-2
0.20569401678167654	0.68542801241080387	0.95886119664366509	0	-2
0.25956802115379773	0.68351290926261521	0.94808639576924025	0	-2
0.3219377791559902	0.6761293678740109	0.93561244416880174	0	-2
0.37330293510470203	0.63998902820967185	0.92533941297905964	0	-2
0.16245569423463277	0.71762309635965149	0.96750886115307322	0	-2
0.10270909096540219	0.73123427215226977	0.9794581818069199	0	-2
0.41891263512253979	0.65434802106631662	0.91621747297549261	0	-2
0.48529465190979398	0.60421594114438704	0.90294106961804188	0	-2
0.46602939466385812	0.64619716946050787	0.90679412106722934	0	-2
0	0.747	1.0000000000000007	0	-1
0.046534165344866367	0.72905837437151322	0.99069316693102671	0	-2
0.62366183572639289	0.5042739047183854	0.87526763285472242	0	-2
0.78636539601588185	0.42791190452996913	0.84272692079682454	0	-2
0.74401679306253532	0.47494775268744449	0.85119664138749407	0	-2
0.66808176823234933	0.51638347374533722	0.86638364635353116	0	-2
0.79733910530580776	0.36488359794889386	0.8405321789388398	0	-2
0.91248424605914624	0.20735062042427485	0.81750315078817126	0	-2
0.88519356798208437	0.2450383470555027	0.82296128640358535	0	-2
0.95734447291083358	0.19499319774188961	0.80853110541783491	0	-2
0.98182573579555366	0.13286520012056766	0.80363485284089009	0	-2
0.86820224320230022	0.31330594902026687	0.82635955135954131	0	-2
0.82266115005632101	0.32520517940317467	0.83546776998873784	0	-2
1.0191874999999999	0	0.79616250000000077	0	-2
0.99784558062422335	0.064158044124098979	0.80043088387515526	0	-2
0.58020539224345169	0.577245546759383	0.88395892155131017	0	-2
0.63297271411971001	0.55085992747853485	0.87340545717605944	0	-2
0.53992235323451665	0.59792113982847506	0.89201552935309725	0	-2
0.23425658675888794	0.7301995101416876	0.95314868264822206	0	-2
0.32177768245774507	0.74744494567152797	0.93564446350845043	0	-2
0.36277143704722603	0.7263859023615189	0.92744571259055408	0	-2
0.38404000154914558	0.68550046015401522	0.92319199969017141	0	-2
0.19084911970415269	0.76259513300768222	0.96183017605916965	0	-2
0.1389480866972708	0.77421208023935861	0.97221038266054616	0	-2
0.056745313017106461	0.77787500000000009	0.9886509373965785	0	-2
0.09909022525954711	0.80395057709984696	0.98018195494809113	0	-2
0.45094030755680797	0.68985370525937995	0.90981193848863817	0	-2
0.51221345906236548	0.64541879723793516	0.89755730818752733	0	-2
0.50570072016694156	0.69420282906047925	0.89885985596661178	0	-2
0	0.80875000000000008	1.0000000000000004	0	-1
0.81058235451679295	0.48638680602589651	0.83788352909664265	0	-2
0.84539655989322204	0.45015549836326879	0.83092068802135721	0	-2
0.84081084221023816	0.3965618757356309	0.83183783155795388	0	-2
0.76193809621672859	0.53324363100835903	0.84761238075665568	0	-2
0.70891652673742533	0.54525565825836575	0.85821669465251627	0	-2
0.94241466034080479	0.24297808384035699	0.8115170679318412	0	-2
0.92200058851626965	0.28889882282397739	0.81559988229674774	0	-2
1.0013674782695041	0.17645290290907323	0.79972650434610026	0	-2
0.99181809560354706	0.25218401570514476	0.8016363808792929	0	-2
1.0683712276579216	0.14369882007001492	0.78632575446841724	0	-2
1.059191453506148	0.092590701910994763	0.78816170929877127	0	-2
0.88880086701689431	0.36621682791326782	0.82223982659662231	0	-2
0.93423095702670655	0.34669491139216346	0.81315380859466058	0	-2
1.0606552641669786	0.0391245505259031	0.78786894716660538	0	-2
1.0971249999999999	0	0.78057500000000146	0	-2
0.62024357866767543	0.59839139761512228	0.87595128426646607	0	-2
0.56132915681334872	0.64857248765029729	0.88773416863733079	0	-2
0.69649305550752683	0.59369879918999957	0.86070138889849612	0	-2
0.23996508747064482	0.78299837786054582	0.95200698250587046	0	-2
0.29735173920848068	0.80314487941387258	0.94052965215830342	0	-2
0.34988230819627791	0.79297528088379743	0.93002353836074447	0	-2
0.38688152034132939	0.76559478995567309	0.9226236959317341	0	-2
0.40884121727892342	0.7251422907346281	0.91823175654421529	0	-2
0.19254884389229926	0.82782258855423363	0.96149023122153954	0	-2
0.14070229708311319	0.84428461524063692	0.97185954058337731	0	-2
0.038929530002566146	0.83997084567415292	0.99221409399948735	0	-2
0.086877725094118827	0.85215723798420473	0.98262445498117634	0	-2
0.45718438210734497	0.74443052451514735	0.90856312357853108	0	-2
0.54147529379582249	0.71709718079338114	0.89170494124083599	0	-2
0.5091120777348298	0.74798185874599488	0.89817758445303408	0	-2
0	0.87050000000000005	1.0000000000000007	0	-1
0.81222280947341241	0.55390817168548467	0.83755543810531929	0	-2
0.86027695313290442	0.51896006908712611	0.82794460937342085	0	-2
0.88893287357820672	0.47524186800215429	0.82221342528436026	0	-2
0.88766326308719767	0.42298451472173404	0.82246734738256244	0	-2
0.74116230799163618	0.58348248302877848	0.85176753840167463	0	-2
0.97775894880115233	0.30841740438166021	0.8044482102397722	0	-2
1.0468768481109973	0.19096719896253356	0.79062463037780262	0	-2
1.0363679413708988	0.27262825307588073	0.79272641172582325	0	-2
1.1049715856552271	0.18053252460408284	0.77900568286895677	0	-2
1.1055165299395118	0.12060798561634389	0.77889669401209938	0	-2
1.1063566552604458	0.06691222652995682	0.77872866894791237	0	-2
0.94111414890997991	0.39566040916819595	0.81177717021800622	0	-2
0.99815160357096311	0.36267598197354567	0.80036967928580993	0	-2
1.1750624999999999	0	0.76498750000000204	0	-2
1.1577601301030231	0.050963714964577571	0.76844797397939735	0	-2
0.60029011099939977	0.67316378575111124	0.87994197780012073	0	-2
0.65554833577540661	0.65819324177530003	0.86889033284492012	0	-2
0.58393978016300163	0.7162376127799579	0.88321204396740094	0	-2
0.72654544915672092	0.62691130607517587	0.85469091016865728	0	-2
0.25776336036415504	0.84931705266785751	0.94844732792716813	0	-2
0.32349873263352202	0.86562129192193216	0.93530025347329571	0	-2
0.37224219170078088	0.85632706409282111	0.9255515616598442	0	-2
0.39888362768732522	0.81446369870784729	0.92022327446253527	0	-2
0.22157529452216129	0.88486874497672574	0.95568494109556723	0	-2
0.17105101567868408	0.88942902816480529	0.96578979686426281	0	-2
0.090492988193425605	0.90784572938954189	0.98190140236131407	0	-2
0.04502140011137501	0.88906694214474302	0.9909957199777244	0	-2
0.47813622370666509	0.79207627859247198	0.90437275525866678	0	-2
0.56521734213811969	0.75231488372968958	0.88695653157237664	0	-2
0.54541130533558424	0.78780882787446604	0.89091773893288373	0	-2
0	0.90137500000000004	1.0000000000000007	0	-1
0.86154656362391357	0.57121742236754636	0.82769068727521855	0	-2
0.83181172549966864	0.62515998842201348	0.83363765490006836	0	-2
0.77056382728230344	0.61862883272253266	0.84588723454354153	0	-2
0.91967802937946352	0.51751689937328371	0.81606439412410969	0	-2
0.91162550342954363	0.56711421156620434	0.81767489931409321	0	-2
0.97209655567500619	0.44707727809841613	0.80558068886500112	0	-2
1.0272295685930635	0.32078576279699439	0.7945540862813899	0	-2
1.0941679181800557	0.238559774481927	0.78116641636399142	0	-2
1.0749628730527869	0.30284558002642747	0.78500742538944579	0	-2
1.1387391665443318	0.1490547171400467	0.77225216669113561	0	-2
1.172490746146883	0.22312277389225615	0.76550185077062616	0	-2
1.1457369453685158	0.10342432186044206	0.77085261092629886	0	-2
1.0319466321042563	0.39798407336500624	0.79361067357915138	0	-2
1.0538849921742235	0.35430943966632128	0.78922300156515857	0	-2
1.2529999999999999	0	0.74940000000000295	0	-2
1.2140312499999999	0.04164900168520641	0.75719375000000277	0	-2
1.219925980198844	0.10763812065519771	0.75601480396023413	0	-2
0.62921307401596105	0.70902672070787831	0.8741573851968083	0	-2
0.71061936956349103	0.66877509671140611	0.85787612608730335	0	-2
0.6749570214342171	0.7120531667039971	0.86500859571315858	0	-2
0.61094639809505547	0.75107427297399965	0.87781072038099006	0	-2
0.75963760600560604	0.69601490053746251	0.84807247879888115	0	-2
0.26003923292511577	0.91794478430949111	0.94799215341497589	0	-2
0.3253641870911716	0.93332275028667344	0.934927162581765	0	-2
0.40010614138365164	0.89738687145782714	0.91997877172326958	0	-2
0.42565222175608541	0.85553965460162029	0.91486955564878347	0	-2
0.46598784083561917	0.83546334213154705	0.90680243183287612	0	-2
0.21522264608499103	0.93115897127872083	0.95695547078300103	0	-2
0.17061400881979299	0.94505899554482142	0.96587719823604057	0	-2
0.11523615954943357	0.9503672962037637	0.97695276809011211	0	-2
0.046658421693265763	0.9301804322716527	0.99066831566134628	0	-2
0.023001410197096041	0.92382494775855994	0.99539971796058102	0	-2
0.5324682558576922	0.85396489497357031	0.89350634882846125	0	-2
0.58759751859636	0.78624461798261192	0.88248049628072844	0	-2
0.59081400440422982	0.83763595563726567	0.88183719911915526	0	-2
0	0.93225000000000002	1.0000000000000004	0	-1
0.89229171942517027	0.61349245373867578	0.8215416561149681	0	-2
0.87049709993377467	0.66310379638042616	0.82590058001324729	0	-2
0.82119731401803853	0.70020783160848254	0.83576053719639531	0	-2
0.98180648622541078	0.50154437521505124	0.80363870275492044	0	-2
0.99518468334555366	0.55522836967728584	0.80096306333089173	0	-2
0.9610531428812622	0.61493817980168397	0.80778937142375029	0	-2
1.0208415007899492	0.46233704098339357	0.79583169984201219	0	-2
1.1310977530174051	0.2846039734453788	0.77378044939652169	0	-2
1.0955900268710839	0.3445606654836984	0.78088199462578667	0	-2
1.1835428727279402	0.1601781066440629	0.76329142545441453	0	-2
1.2112339146250211	0.25628284087204128	0.7577532170749991	0	-2
1.187652385753541	0.30149937149871342	0.76246952284929537	0	-2
1.24503692264217	0.17757530360494422	0.75099261547156904	0	-2
1.0599343123711495	0.42946331104227931	0.78801313752577284	0	-2
1.0798646157845058	0.38835951564565158	0.78402707684310202	0	-2
1.3309375000000001	0	0.73381250000000375	0	-2
1.275069187981033	0.059703953936248472	0.74498616240379656	0	-2
1.2951448322411869	0.1201074280193143	0.74097103355176552	0	-2
0.65497799132222878	0.75311611123395295	0.86900440173555538	0	-2
0.7006313668680666	0.75416318284404704	0.85987372662638872	0	-2
0.62953949175648394	0.79103984783162451	0.8740921016487041	0	-2
0.74413675697751469	0.77739476703877264	0.85117264860449915	0	-2
0.78908262650565453	0.74520638606603029	0.84218347469887112	0	-2
0.26502195820072721	0.96269360126048575	0.94699560835985352	0	-2
0.31774999999999998	1	0.93644999999999967	0	-2
0.37835986263446397	0.9478521514545778	0.92432802747310749	0	-2
0.4417011920757748	0.94522887549281642	0.91165976158484485	0	-2
0.46786322470944613	0.8804800437460707	0.90642735505811067	0	-2
0.22032812499999999	0.96814753960918531	0.95593437499999923	0	-2
0.16187499999999999	1	0.96762499999999885	0	-2
0.20084374999999999	1	0.95983124999999858	0	-2
0.083937499999999998	1	0.98321249999999938	0	-2
0.061275247116129999	0.97341575179370776	0.98774495057677358	0	-2
0.032590646652746087	0.96117574374027304	0.9934818706694506	0	-2
0.017467426383367297	0.94768750000000002	0.99650651472332641	0	-2
0.51662407579090031	0.89510964766865087	0.89667518484182029	0	-2
0.58543417890593885	0.89798426224907091	0.88291316421881327	0	-2
0.65760293719250507	0.85375326007915553	0.86847941256150019	0	-2
0.63299521673032189	0.89459445503629675	0.8734009566539368	0	-2
0	0.96312500000000001	1.0000000000000007	0	-1
0.92575633328710305	0.65778663702981588	0.81484873334258212	0	-2
0.8807614675241523	0.71631031398364364	0.82384770649517258	0	-2
0.83677021666330897	0.73919358700378501	0.83264595666734098	0	-2
1.0383415988784264	0.51715951480807687	0.79233168022431777	0	-2
1.0002217215265379	0.61267062630964808	0.79995565569469473	0	-2
1.0259114234245128	0.58147595509201178	0.79481771531509993	0	-2
0.96949357074204257	0.67400583269656034	0.80610128585159457	0	-2
1.009897944658094	0.65069285740987048	0.79802041106838384	0	-2
1.0713393060501835	0.47001178537418603	0.78573213878996684	0	-2
1.141140269723993	0.35408973707499802	0.77177194605520405	0	-2
1.1247857354233379	0.39676369125107258	0.77504285291533626	0	-2
1.2397982510157648	0.29852857240063069	0.75204034979685019	0	-2
1.2762483614413611	0.24310321452733824	0.744750327711731	0	-2
1.2024631088285689	0.3614616817068389	0.75950737823428904	0	-2
1.2903268635138718	0.19620044022182415	0.74193462729722881	0	-2
1.1015558025305614	0.43593665703751916	0.77968883949389145	0	-2
1.3592155161557169	0.040890905181011156	0.72815689676886042	0	-2
1.4088750000000001	0	0.71822500000000444	0	-2
1.324756457870234	0.076727836220137763	0.73504870842595704	0	-2
1.3279497994843588	0.16038357009759385	0.73441004010313171	0	-2
0.68896541756209961	0.80208323187952379	0.86220691648758163	0	-2
0.74527903662436723	0.85393737934112168	0.85094419267512889	0	-2
0.79297035505995883	0.82285576595564081	0.8414059289880107	0	-2
0.83136208715058291	0.78082478390845034	0.83372758256988655	0	-2
0.23981249999999998	1	0.95203749999999909	0	-2
0.39568749999999997	1	0.92086250000000025	0	-2
0.47362499999999996	1	0.90527500000000027	0	-2
0.48384659751887249	0.92459804597128858	0.9032306804962259	0	-2
0.044968749999999995	1	0.99100624999999964	0	-2
0.03112423398414689	0.98138698181216111	0.99377515320317034	0	-2
0.014781262455782805	0.97084375000000001	0.99704374750884295	0	-2
0.53413937169100978	0.94753947356461388	0.8931721256617986	0	-2
0.59053124999999995	0.95793420695113141	0.88189375000000092	0	-2
0.63188876020827256	0.9397568009902052	0.87362224795834686	0	-2
0.70140342849428639	0.87173033194803307	0.85971931430114423	0	-2
0.70486311273594382	0.91894991195679887	0.85902737745281299	0	-2
0	0.9785625	1.0000000000000007	0	-1
0.94965198058377509	0.7227169523283834	0.81006960388324856	0	-2
0.91280167915647437	0.74537505501315671	0.81743966416870883	0	-2
0.87253335412201971	0.76118000143749365	0.82549332917559926	0	-2
1.0709198573053178	0.58764083951540791	0.78581602853893917	0	-2
1.1088455584417607	0.55104073002187914	0.77823088831165133	0	-2
1.0388074386801023	0.61977427211131242	0.79223851226398223	0	-2
1.0121153725742424	0.6929634237049821	0.79757692548515435	0	-2
1.0481406720010737	0.66883704564862201	0.79037186559978834	0	-2
1.1312339237528628	0.50332607901900861	0.77375321524943086	0	-2
1.1963751545788852	0.41496032457267956	0.76072496908422615	0	-2
1.1470930633738396	0.43665003323578933	0.77058138732523584	0	-2
1.2552142006614828	0.34843213347344248	0.74895715986770706	0	-2
1.2912116964975411	0.30773044910701997	0.74175766070049542	0	-2
1.3305095248757015	0.26458583656329132	0.73389809502486336	0	-2
1.2487288246492574	0.40238013357271374	0.75025423507015265	0	-2
1.3600181895700443	0.20124861449800577	0.72799636208599461	0	-2
1.4080860650191085	0.049641530755508721	0.71838278699618274	0	-2
1.3761330549076192	0.087640335196823141	0.72477338901847976	0	-2
1.4868125000000001	0	0.70263750000000424	0	-2
1.4478437500000001	0.025446350825383025	0.71043125000000418	0	-2
1.3869254678945484	0.14711824762387427	0.72261490642109372	0	-2
0.75645218274282666	0.90595213768837768	0.84870956345143689	0	-2
0.83427507831064063	0.86202780166932425	0.83314498433787454	0	-2
0.86636227443557423	0.82022298187623133	0.82672754511288815	0	-2
0.55156249999999996	1	0.88968750000000096	0	-2
0.025484374999999997	1	0.99490312500000033	0	-2
0.01262143875438506	0.98737856124561496	0.99747571224912335	0	-2
0.62949999999999995	1	0.87410000000000154	0	-2
0.67722633727302828	0.96039366562402362	0.86455473254539572	0	-2
0.74640624999999994	0.95819630975985848	0.85071875000000197	0	-2
0	0.99399999999999999	1.0000000000000004	0	-1
0.95020140897597916	0.76490555838435992	0.8099597182048075	0	-2
1.0024203411057699	0.75305341753071853	0.7995159317788495	0	-2
0.90875271426535176	0.78891353084094573	0.81824945714693342	0	-2
1.1339361781954178	0.59739143251932225	0.77321276436092046	0	-2
1.0858745628242605	0.63053747928122561	0.78282508743515122	0	-2
1.177270763814855	0.51623718700050736	0.76454584723703312	0	-2
1.1817177707736399	0.56384297951898033	0.7636564458452757	0	-2
1.0605504570829032	0.71038101694571953	0.78788990858342256	0	-2
1.0903830765922451	0.67860861518821214	0.78192338468155442	0	-2
1.1914359867872422	0.47057063676572475	0.76171280264255525	0	-2
1.2649750599720273	0.45424983811522113	0.74700498800559889	0	-2
1.2953869739679007	0.37037330675908597	0.74092260520642317	0	-2
1.3283375099183516	0.33860022096532799	0.73433249801633405	0	-2
1.3738942913794141	0.32260495605192907	0.72522114172412089	0	-2
1.3941982147969487	0.26219195594297928	0.72116035704061365	0	-2
1.2995922049346718	0.42651502412111714	0.74008155901306949	0	-2
1.4082814907144967	0.19148671787432733	0.71834370185710439	0	-2
1.4261039791626711	0.097226674985160924	0.71477920416746921	0	-2
1.5647500000000001	0	0.68705000000000382	0	-2
1.4923730346738888	0.051077155146430346	0.70152539306522577	0	-2
1.5437712983654321	0.047091026822995659	0.69124574032691799	0	-2
1.4769064433436754	0.10007286798272046	0.70461871133126808	0	-2
1.4441095589417654	0.14691755731910702	0.71117808821165074	0	-2
0.8052363379729035	0.94242069306722676	0.8389527324054219	0	-2
0.86086125347184916	0.917071993686706	0.8278277493056333	0	-2
0.92140867391857739	0.86617274275974965	0.81571826521628854	0	-2
0.0060000000000000001	1	0.99879999999999936	0	-2
0.70743749999999994	1	0.8585125000000019	0	-2
0.78537499999999993	1	0.84292500000000259	0	-2
0	1	1.0000000000000004	0	-1