[Format]      =  1
[Precision]   =  1e-008
[Frequency]   =  0
[MinAngle]    =  30
[DoSmartMesh] =  1
[Depth]       =  1
[LengthUnits] =  centimeters
[ProblemType] =  planar
[Coordinates] =  cartesian
[Comment]     =  "Add comments here."
[PointProps]   = 0
[BdryProps]   = 3
  <BeginBdry>
    <BdryName> = "V=0"
    <BdryType> = 0
    <vsr> = 0
    <vsi> = 0
    <qsr> = 0
    <qsi> = 0
    <c0r>  = 0
    <c0i>  = 0
    <c1r>  = 0
    <c1i>  = 0
  <EndBdry>
  <BeginBdry>
    <BdryName> = "V=1"
    <BdryType> = 0
    <vsr> = 1
    <vsi> = 0
    <qsr> = 0
    <qsi> = 0
    <c0r>  = 0
    <c0i>  = 0
    <c1r>  = 0
    <c1i>  = 0
  <EndBdry>
  <BeginBdry>
    <BdryName> = "Insulation"
    <BdryType> = 2
    <vsr> = 0
    <vsi> = 0
    <qsr> = 0
    <qsi> = 0
    <c0r>  = 0
    <c0i>  = 0
    <c1r>  = 0
    <c1i>  = 0
  <EndBdry>
[BlockProps]  = 1
  <BeginBlock>
    <BlockName> = "Copper"
    <ox> = 58000000
    <oy> = 58000000
    <ex> = 1
    <ey> = 1
    <ltx> = 0
    <lty> = 0
  <EndBlock>
[ConductorProps]  = 0
[NumPoints] = 6
0	0	0	0	0
6	0	0	0	0
6	6	0	0	0
5	6	0	0	0
5	1	0	0	0
0	1	0	0	0
[NumSegments] = 6
0	1	-1	3	0	0	0
1	2	-1	3	0	0	0
2	3	-1	1	0	0	0
3	4	-1	3	0	0	0
4	5	-1	3	0	0	0
5	0	-1	2	0	0	0
[NumArcSegments] = 0
[NumHoles] = 0
[NumBlockLabels] = 1
5.5	0.5	1	0.10000000000000001	0	0
