[Format]      =  1
[Precision]   =  1e-008
[Frequency]   =  0
[MinAngle]    =  30
[DoSmartMesh] =  1
[Depth]       =  1
[LengthUnits] =  centimeters
[ProblemType] =  planar
[Coordinates] =  cartesian
[Comment]     =  "Add comments here."
[PointProps]   = 0
[BdryProps]   = 3
  <BeginBdry>
    <BdryName> = "V=0"
    <BdryType> = 0
    <vsr> = 0
    <vsi> = 0
    <qsr> = 0
    <qsi> = 0
    <c0r>  = 0
    <c0i>  = 0
    <c1r>  = 0
    <c1i>  = 0
  <EndBdry>
  <BeginBdry>
    <BdryName> = "V=1"
    <BdryType> = 0
    <vsr> = 1
    <vsi> = 0
    <qsr> = 0
    <qsi> = 0
    <c0r>  = 0
    <c0i>  = 0
    <c1r>  = 0
    <c1i>  = 0
  <EndBdry>
  <BeginBdry>
    <BdryName> = "Insulation"
    <BdryType> = 2
    <vsr> = 0
    <vsi> = 0
    <qsr> = 0
    <qsi> = 0
    <c0r>  = 0
    <c0i>  = 0
    <c1r>  = 0
    <c1i>  = 0
  <EndBdry>
[BlockProps]  = 1
  <BeginBlock>
    <BlockName> = "Copper"
    <ox> = 58000000
    <oy> = 58000000
    <ex> = 1
    <ey> = 1
    <ltx> = 0
    <lty> = 0
  <EndBlock>
[ConductorProps]  = 0
[NumPoints] = 6
0	0	0	0	0
6	0	0	0	0
6	6	0	0	0
5	6	0	0	0
5	1	0	0	0
0	1	0	0	0
[NumSegments] = 6
0	1	-1	3	0	0	0
1	2	-1	3	0	0	0
2	3	-1	1	0	0	0
3	4	-1	3	0	0	0
4	5	-1	3	0	0	0
5	0	-1	2	0	0	0
[NumArcSegments] = 0
[NumHoles] = 0
[NumBlockLabels] = 1
5.5	0.5	1	0.10000000000000001	0	0
[Solution]
1507
0	0	1.0000000000000007	0	-1
0	0.0080000000000000002	1.0000000000000002	0	-1
0.0080000000000000002	0	0.99924196478298699	0	-2
0	0.038750000000000007	1.0000000000000002	0	-1
0.016828585005846733	0.016828585005846733	0.99840541748896994	0	-2
0.031375	0	0.99702708063376388	0	-2
0	0.069500000000000006	1.0000000000000002	0	-1
0.028768971525117031	0.054125	0.99727401329886423	0	-2
0.043062500000000004	0.024803687080031632	0.9959196385580974	0	-2
0.054750000000000007	0	0.99481219648631292	0	-2
0	0.13100000000000001	1	0	-1
0.034926636947352936	0.10024999999999999	0.99669054737453944	0	-2
0.059599377325683288	0.05100962481699798	0.9943526966296875	0	-2
0.078125	0.026169721659229882	0.99259731234003312	0	-2
0.10150000000000001	0	0.99038242820241285	0	-2
0	0.254	1.0000000000000004	0	-1
0.06677319208989986	0.17163241638093307	0.99367294598198075	0	-2
0.10869478981239522	0.068296863896078142	0.98970069016649653	0	-2
0.1125191127971705	0.033366584916911926	0.98933831875644307	0	-2
0.14824999999999999	0	0.98595265994863723	0	-2
0	0.377	1.0000000000000004	0	-1
0.08236092498282449	0.25251838385178632	0.99219593949318852	0	-2
0.074254749433814077	0.33664217312433942	0.99296403515288911	0	-2
0.15274739599276874	0.22315831597470775	0.98552651142282977	0	-2
0.15414531299358175	0.14690666212353401	0.98539405287985393	0	-2
0.16662020795005475	0.056964305968995432	0.98421200187173374	0	-2
0.19500000000000001	0	0.98152289173016627	0	-2
0	0.5	1.0000000000000004	0	-1
0.11298747796311062	0.46308574096521921	0.98929393788240938	0	-2
0.15010880758233092	0.29937712427148372	0.9857765289683863	0	-2
0.14135636569151908	0.3773953438947808	0.98660586100920822	0	-2
0.22633600241066762	0.26386092674559741	0.97855366670196098	0	-2
0.26044578021920461	0.18699410310921177	0.97532161559105912	0	-2
0.24174999999999996	0.058842596200909772	0.97709312351147348	0	-2
0.28849999999999998	0	0.97266335548144789	0	-2
0	0.623	1.0000000000000002	0	-1
0.078153058482412913	0.61575515229631783	0.99259465238425382	0	-2
0.12473228034010331	0.55258265464475231	0.98818106557798013	0	-2
0.19773931922948987	0.43202510119404114	0.98126332713236031	0	-2
0.21847385981872963	0.34654668390705134	0.97929863870611478	0	-2
0.32832191273989997	0.26311579359963916	0.96889005264002481	0	-2
0.34416006653010056	0.1966270377532037	0.96738931855303112	0	-2
0.31321969212751483	0.13568202153926895	0.9703210555574322	0	-2
0.35100199245306074	0.072511512001536008	0.96674101680779023	0	-2
0.38200000000000001	0	0.96380381955885153	0	-2
0	0.746	1	0	-1
0.11063013441051642	0.68720882895165314	0.98951730566406926	0	-2
0.19761508918254084	0.66664918568505405	0.9812750967148981	0	-2
0.22176210200830929	0.57090295158415605	0.97898706129277224	0	-2
0.25851020862172991	0.49302971648556876	0.97550501666933209	0	-2
0.32378785736280541	0.44568634171249988	0.96931967202792724	0	-2
0.32595012555265246	0.36507684378364735	0.96911478869896961	0	-2
0.40093906148130054	0.31581310279571234	0.96200925746598231	0	-2
0.40917318185620166	0.22808439788715312	0.96122903965928652	0	-2
0.38646758028047512	0.1429457928929099	0.96338049609403875	0	-2
0.43534442544397522	0.074188876432637607	0.95874920084560766	0	-2
0.47549999999999998	0	0.95494428421894517	0	-2
0	0.86899999999999999	1.0000000000000004	0	-1
0.075623526452271328	0.80749999999999988	0.99283433629158302	0	-2
0.18206211715993148	0.79013064526584464	0.98274880891553595	0	-2
0.28479095064356935	0.64691468628759019	0.97301479854623885	0	-2
0.2557541653455897	0.73453827988175213	0.97576616157615648	0	-2
0.30829652920107697	0.56328629174768685	0.97078754211440099	0	-2
0.37516690133654873	0.507837451118613	0.9644512798989503	0	-2
0.44340658724068033	0.41925444938526846	0.95798527039444503	0	-2
0.49063801909264548	0.31789965288506611	0.95350988651459245	0	-2
0.49767362401147708	0.22966515109684654	0.95284323389307168	0	-2
0.52832867074663614	0.13060133237626712	0.9499385351889007	0	-2
0.56899999999999995	0	0.94608474950633803	0	-2
0	0.93049999999999999	1.0000000000000002	0	-1
0.058434067907285878	0.90344628845352803	0.99446311344772997	0	-2
0.1312254718116459	0.88524375459072346	0.98756580576295483	0	-2
0.20556992585792563	0.89538391602705292	0.9805213395772393	0	-2
0.28166409539549025	0.82313683844567609	0.97331108037769476	0	-2
0.35778154696775777	0.67816856933095537	0.9660986162811912	0	-2
0.33295235853075333	0.75374654034533506	0.96845129088102599	0	-2
0.41149008913432106	0.61968930073608086	0.96100949524618429	0	-2
0.49606955173162764	0.53039886114805868	0.95299521943031074	0	-2
0.51176779263385819	0.45491193546576286	0.95150774386975434	0	-2
0.52055347430419419	0.38342158632667633	0.95067526385293344	0	-2
0.56784261140866255	0.32224046782634469	0.94619441190045595	0	-2
0.58191008554859514	0.21938423646066285	0.94486145969975721	0	-2
0.612336108459826	0.14046188692094563	0.9419784624161136	0	-2
0.66249999999999998	0	0.93722521579017437	0	-2
0	0.96124999999999994	1.0000000000000002	0	-1
0.025731351561880549	0.95891678461378382	0.99756184054758579	0	-2
0.06640625	0.97782342539151335	0.99370771387531753	0	-2
0.11170238406293401	0.95769214840418437	0.98941570467002904	0	-2
0.24162500000000003	1	0.97710496145462755	0	-2
0.16375000000000001	1	0.98448396259754223	0	-2
0.28056249999999999	0.92805942583392986	0.97341546091393905	0	-2
0.38764968117088427	0.82015357214928597	0.96326847653640346	0	-2
0.36064741678075024	0.93122149555999756	0.96582706006604191	0	-2
0.45915747141846436	0.67877776668125955	0.95649279866426662	0	-2
0.41078339786213869	0.73728909164612766	0.96107645537782971	0	-2
0.48758960651755379	0.60707005763966049	0.95379872969954449	0	-2
0.5776640035696633	0.50395251811201702	0.94526378554773816	0	-2
0.60534574508245853	0.58128951151620212	0.94264081535595734	0	-2
0.58144395566252127	0.42189765034565047	0.94490562139822964	0	-2
0.63564629738190015	0.28506450896205437	0.93976971607230897	0	-2
0.63475800056836462	0.36386452289085025	0.93985388322352981	0	-2
0.67151574154998817	0.20089574460335596	0.93637093192713405	0	-2
0.71367912612627527	0.10041475719878193	0.93237576947573664	0	-2
0.75600000000000001	0	0.92836568334180003	0	-2
0	0.99199999999999999	0.99999999999999978	0	-1
0.016828585005846747	0.98317141499415328	0.9984054170826312	0	-2
0.037203124999999997	0.98206726541708522	0.99647483923376168	0	-2
0.0469375	1	0.99555246411396658	0	-2
0.085875000000000007	1	0.99186296363211957	0	-2
0.31950000000000001	1	0.96972596011901391	0	-2
0.45965551846988884	0.80964161199741758	0.95644560425335745	0	-2
0.43714276889321579	0.90730385173954331	0.9585787862080869	0	-2
0.39737500000000003	1	0.96234695851115371	0	-2
0.49670739372433009	0.74701174331246423	0.95293477573655638	0	-2
0.53507465007725574	0.67923397503972438	0.94929930960769471	0	-2
0.68774058093885226	0.50817473189703499	0.93483354357316484	0	-2
0.65682574880148104	0.43764370283957355	0.93776286370342798	0	-2
0.62617908480694673	0.67041710122451781	0.94066676067794663	0	-2
0.75868502256212245	0.5924455226689499	0.92811123917139271	0	-2
0.71712266581219242	0.67339086662463488	0.93204945257127847	0	-2
0.70818703598943367	0.3252872599760871	0.93289616145155729	0	-2
0.78715343497836865	0.29990347996633088	0.92541375072593313	0	-2
0.78245240575224795	0.18835979416607568	0.92585919903860758	0	-2
0.79259562038445419	0.074549286955553393	0.92489808870746948	0	-2
0.84949999999999992	0	0.91950615273528902	0	-2
0	1	1.0000000000000007	0	-1
0.0080000000000000002	1	0.99924196458962977	0	-2
0.027468749999999997	1	0.99739721435228657	0	-2
0.5321116554555545	0.81638328274580318	0.94958006352038216	0	-2
0.47525000000000006	1	0.95496795655796451	0	-2
0.5396692301099274	0.91933637899402298	0.94886394837160282	0	-2
0.5788941580560355	0.74878731874017079	0.94514721499983256	0	-2
0.82017972205123046	0.51690920121545869	0.92228434951350124	0	-2
0.78424541999474984	0.42637710823349745	0.92568928962559283	0	-2
0.68077769757982931	0.75680921886741859	0.93549329646137014	0	-2
0.84845953252516149	0.61011642327222515	0.91960470439016595	0	-2
0.77039694027437888	0.74622904614900076	0.92700147406647659	0	-2
0.86770562240753324	0.69956647297301799	0.91778104492981605	0	-2
0.8898620538107751	0.32783130997591092	0.91568165838206272	0	-2
0.87859130418542575	0.2254162700616959	0.91674961851195069	0	-2
0.8711856727966607	0.10139028691366132	0.91745133999505413	0	-2
0.94299999999999995	0	0.91064662446097011	0	-2
0.61850209529922273	0.92211456286528004	0.9413941834960956	0	-2
0.66389797804309647	0.85760446466755158	0.93709272231616203	0	-2
0.63100000000000001	1	0.94020995105921412	0	-2
0.95309269708472721	0.54278279385974448	0.9096902547938116	0	-2
0.89697036409514497	0.43403157361214528	0.9150081050965635	0	-2
0.80525597562946383	0.82946603534256236	0.92369842112612	0	-2
0.93641088725600474	0.63534106535579116	0.91127091984807862	0	-2
0.8915743270605565	0.79100265105723699	0.91551937198676514	0	-2
0.97837068549598316	0.71951167621942846	0.90729503223997243	0	-2
0.98850913888946024	0.36780350877686796	0.9063344126302243	0	-2
0.96811889857687061	0.27641313310471538	0.90826648677706345	0	-2
1.003283940123703	0.18962959481252603	0.90493445520600491	0	-2
0.97054727168685739	0.095639661487377819	0.9080364003527851	0	-2
1.0365	0	0.90178709946937896	0	-2
0.70887500000000003	0.94755831194352624	0.93283094704782743	0	-2
0.78675000000000006	1	0.92545194205827996	0	-2
1.0408880117852473	0.53767362434064581	0.90137125998653223	0	-2
0.99230087650302123	0.45964482088435166	0.90597511678194564	0	-2
0.82568750000000013	0.93716061602594336	0.92176243970031868	0	-2
0.89067490854010034	0.90192492650904854	0.91560459104795822	0	-2
1.0842237508475299	0.61419900977883868	0.89726499301785423	0	-2
1.0577030923104911	0.69339671561217076	0.89977793289539332	0	-2
0.97674339954623546	0.83194796600768561	0.90744921576265281	0	-2
1.0589424366521056	0.7769077086855628	0.89966048876721949	0	-2
1.124865169111475	0.28941107954832945	0.89341410010744315	0	-2
1.121468523263176	0.38195284089166054	0.893735930138845	0	-2
1.0958767316124938	0.20077018454675191	0.89616089042915548	0	-2
1.086367091648726	0.10799570247828363	0.89706197734628268	0	-2
1.1299999999999999	0	0.89292757849073079	0	-2
0.86462499999999998	1	0.91807293576039462	0	-2
1.0991965814874185	0.47183874304034051	0.89584627741848155	0	-2
1.1677877988305885	0.59748059954767307	0.8893469286393807	0	-2
0.94250000000000012	1	0.91069392766168222	0	-2
1.020375	0.93565844827618938	0.90331491811310261	0	-2
1.1538461269919591	0.68155250414318247	0.89066794707477803	0	-2
1.1578568551824435	0.77833929313045147	0.89028789633868155	0	-2
1.1068676963414459	0.88347258445451637	0.89511934185613906	0	-2
1.1883571830162278	0.23107137443836639	0.88739797107375618	0	-2
1.252465024522635	0.28873368170566321	0.88132347008466128	0	-2
1.1994651209315752	0.43187323299447422	0.88634540288528296	0	-2
1.1814781591318868	0.14512117925302992	0.88804979926684702	0	-2
1.1791206858310239	0.065793948617072523	0.88827318585132675	0	-2
1.2235	0	0.88406806344872713	0	-2
1.2270411924064699	0.5362311856262798	0.88373241993002083	0	-2
1.2646116812657457	0.63186322952992435	0.88017242003694607	0	-2
1.0982499999999999	1	0.8959359047839679	0	-2
1.2259092187411169	0.72704279061760368	0.88383963100235396	0	-2
1.1885612521872766	0.85816218179185833	0.8873785026000488	0	-2
1.2720374089229178	0.81106069734556852	0.87946875447862716	0	-2
1.1761249999999999	0.94717682100330369	0.88855688827581902	0	-2
1.261346643131793	0.18197928405577959	0.88048192243950862	0	-2
1.3492325339064126	0.22176856853855087	0.87215436324230389	0	-2
1.3041122984077178	0.40541590429773322	0.8764296370034057	0	-2
1.3761866861795609	0.31996079181267234	0.86960031357153889	0	-2
1.2513144868219617	0.098754869405417361	0.88143252145314921	0	-2
1.3169999999999999	0	0.87520855674194031	0	-2
1.3150483188397573	0.55685234861161814	0.87539334591914364	0	-2
1.3596429492419262	0.64129938438495138	0.87116777025824765	0	-2
1.3110561848329676	0.72351440269594502	0.87577156326435668	0	-2
1.254	1	0.88117786672988263	0	-2
1.2561709153007381	0.91298399588008561	0.88097216558312885	0	-2
1.3624175313714963	0.79887414450601513	0.87090481362831762	0	-2
1.3708125	0.88968495391578595	0.8701093308508705	0	-2
1.3301685443662914	0.12719753037298231	0.87396077403860672	0	-2
1.4407866906344007	0.1913555229375874	0.86347924712729629	0	-2
1.386287681757002	0.43678932787961167	0.86864315202459164	0	-2
1.4618587652828869	0.39177714430034638	0.86148249186051795	0	-2
1.483370396171021	0.28819688249742931	0.8594442313953552	0	-2
1.4104999999999999	0	0.86634905999119582	0	-2
1.3991794123987042	0.52380018132279738	0.86742156232595846	0	-2
1.4237018415289158	0.59745282925469689	0.8650979154527132	0	-2
1.3980070023917395	0.71943567626859717	0.86753256695391179	0	-2
1.3318750000000001	1	0.87379883883736664	0	-2
1.5075976596963645	0.81622522967434463	0.85714828427665435	0	-2
1.4097500000000001	1	0.86641980479507197	0	-2
1.4728929383041478	0.91568333024560178	0.86043670293164387	0	-2
1.4544068337630107	0.096907767391246027	0.86218870788146695	0	-2
1.5157548406803096	0.16999886721783442	0.85637573072070494	0	-2
1.4853225476193741	0.53602774049002366	0.85925911024241519	0	-2
1.5682450647727753	0.45685212586549018	0.85140189335591776	0	-2
1.5742450480812349	0.34235792512795504	0.85083346001390581	0	-2
1.610337238602801	0.2755339866303651	0.84741363337055942	0	-2
1.5861145571885158	0.20355241483537895	0.84970886741045493	0	-2
1.504	0	0.85748957697839201	0	-2
1.4972761461879793	0.62220931874254393	0.85812639483433661	0	-2
1.5435995208995847	0.71702745114059663	0.85373697872575482	0	-2
1.5757067526749318	0.89577503787228141	0.85069457434006912	0	-2
1.5992331927641505	0.80670034465358786	0.84846535705582316	0	-2
1.5655000000000001	1	0.85166170375499572	0	-2
1.5497856544493451	0.099868745450827662	0.85315120480503381	0	-2
1.585419828622759	0.63787144760563763	0.84977435701990922	0	-2
1.6294978097224877	0.55995006019589377	0.84559782915813619	0	-2
1.6743548061844269	0.41342811661045686	0.8413475887478804	0	-2
1.6840859550997951	0.29367818096410925	0.84042565174831296	0	-2
1.718977815833624	0.21182302733893002	0.83711959638075595	0	-2
1.6581209167953563	0.11813246368392553	0.84288605006454465	0	-2
1.5974999999999999	0	0.84863011400193966	0	-2
1.6692161407689023	0.74678222265497929	0.84183415133550699	0	-2
1.643375	1	0.84428263042121121	0	-2
1.6823125000000001	0.90064040914867127	0.8405931058529772	0	-2
1.6997927162197783	0.82166602659497801	0.83893679948214483	0	-2
1.6888742657654869	0.64496522797314937	0.83997153919524348	0	-2
1.7207230463885694	0.55947884883734889	0.83695381881311304	0	-2
1.7366043358528809	0.47405098212135044	0.83544910728469779	0	-2
1.7738574483671723	0.37352692136158022	0.83191937010681427	0	-2
1.7782973370797479	0.27814725006035534	0.83149880631411888	0	-2
1.7697472275357717	0.12272056013349682	0.83230909879493997	0	-2
1.8294747695817737	0.20608364277695798	0.82664966698793685	0	-2
1.6909999999999996	0	0.83977067547260575	0	-2
1.7527439730951522	0.71010297686386525	0.83391948281060135	0	-2
1.7212499999999999	1	0.83690353856261834	0	-2
1.7991250000000001	0.91217268169155297	0.82952443681313992	0	-2
1.7798667360359208	0.81023526068401019	0.83134934618635614	0	-2
1.817036361386916	0.61771946645920806	0.82782757848219346	0	-2
1.8110363388008479	0.51888414734364385	0.82839627835773666	0	-2
1.8622727931321221	0.43415371406688086	0.82354156654523314	0	-2
1.900336159148003	0.36082469907303999	0.81993507760088058	0	-2
1.8736752282477602	0.28262521674765412	0.82246143393489612	0	-2
1.7845	0	0.83091126956364236	0	-2
1.8715368047995962	0.11024399060780835	0.82266427031694223	0	-2
1.9398014736910798	0.18958117429682669	0.81619594852811461	0	-2
1.8423161996816575	0.72739696626084505	0.82543199997317607	0	-2
1.877	1	0.82214527164907747	0	-2
1.8810074576576674	0.91800777210426465	0.82176555976568921	0	-2
1.9047576703396243	0.83942843290020908	0.81951513695845579	0	-2
1.8855768768707004	0.56395877669399352	0.82133312564515126	0	-2
1.9353194772480751	0.66456967198670935	0.81661952260633741	0	-2
1.9247180207876671	0.4899372739708826	0.81762449481010768	0	-2
1.9829484244795483	0.36191000512030558	0.81210729133830761	0	-2
2.0086666165937874	0.28061669629242592	0.80967064007437073	0	-2
1.8779999999999997	0	0.8220519085598158	0	-2
1.9429960329322835	0.074596730947308176	0.81589338227545716	0	-2
2.0525343093731396	0.20750272364679331	0.80551427129682263	0	-2
2.0182500000000001	0.10131730068662262	0.80876293286032053	0	-2
1.9787064751923498	0.78727625219358033	0.81250807641272538	0	-2
1.9548749999999999	1	0.81476607410494339	0	-2
1.9938125	0.89973984024064146	0.81107650961256283	0	-2
1.9725260117006318	0.55868033192862909	0.8130942794210656	0	-2
2.0456050155067493	0.63573263855063733	0.80616940773904511	0	-2
2.0459988371559352	0.72677820501050894	0.80613181395385036	0	-2
2.0362134947140449	0.46339250490965639	0.80705991506476127	0	-2
2.0830376100991299	0.37409609864497373	0.80262350180325059	0	-2
2.0937581733391557	0.28604389045329143	0.80160802238054529	0	-2
1.9714999999999996	0	0.81319260957168704	0	-2
2.1213335431504206	0.16961789942625341	0.79899556858622145	0	-2
2.151254816958172	0.2381833144464009	0.79616031157456835	0	-2
2.0649999999999999	0	0.80433339369888524	0	-2
2.1303455814851762	0.091596250894483505	0.79814182934556999	0	-2
2.0606952559900562	0.8255661400872395	0.80473896329969419	0	-2
2.0327500000000001	1	0.80738683102221454	0	-2
2.1106249999999998	0.91206505052184395	0.80000756301065223	0	-2
2.0555271883540658	0.54522849083641234	0.80522955690349562	0	-2
2.1223090007895737	0.68092448702549302	0.79890104021398933	0	-2
2.1254344531073874	0.59195237861700856	0.79860527777552059	0	-2
2.1773510359889006	0.75772442825558028	0.7936850800439359	0	-2
2.1118723702163029	0.48873369572233127	0.79989083066636879	0	-2
2.1433234211091561	0.41176393443661913	0.79691107935576988	0	-2
2.1723155689909852	0.32723681984677649	0.79416441238243485	0	-2
2.1990927457105913	0.18066782665535527	0.79162786389417927	0	-2
2.2408130156654433	0.26402034381787165	0.78767455125599317	0	-2
2.1585000000000001	0	0.79547428042601687	0	-2
2.2244666962862047	0.090017737925290303	0.78922396299207198	0	-2
2.1538555807183153	0.8391607798890508	0.79591122243736478	0	-2
2.1884999999999999	1	0.79262811543988243	0	-2
2.2132129507098774	0.89966382455150673	0.79028639344869944	0	-2
2.2588639814682945	0.64118050156979378	0.78596166297850112	0	-2
2.2137979623157502	0.55788896743311056	0.79023250747527896	0	-2
2.2713942752270757	0.73672220016087642	0.78477374468992012	0	-2
2.2905726217956706	0.83115426809463244	0.78295595265286133	0	-2
2.1885363435704117	0.46661861978687391	0.79262670376237965	0	-2
2.2119585269780111	0.39325806767134586	0.79040781729523213	0	-2
2.3571437671310465	0.17603176752699912	0.7766529170932549	0	-2
2.3121788154123619	0.30536558041586376	0.78091242448718645	0	-2
2.288451170764302	0.38435611682571869	0.78316004523904448	0	-2
2.2519999999999998	0	0.78661530098230004	0	-2
2.3297238225636985	0.072992631687633064	0.77925122301833039	0	-2
2.266375	1	0.78524859891067789	0	-2
2.3053124999999999	0.91942344061993209	0.78155887444049965	0	-2
2.3342856151939118	0.67988147762373263	0.7788145554794389	0	-2
2.3586346434707521	0.53958688465564908	0.77650856925247769	0	-2
2.2788877848154678	0.49074243727532618	0.7840653951895814	0	-2
2.3736513107166597	0.76511818267668918	0.77508359748050248	0	-2
2.3931722970303615	0.92666269942556956	0.77323291523580118	0	-2
2.4394886337899049	0.85165238179227409	0.76884404783439431	0	-2
2.4462242812535751	0.19036915176409527	0.76821289852233599	0	-2
2.4281031515846818	0.10198067263576464	0.76993024836842394	0	-2
2.3945525829709782	0.30949697014091399	0.77310756934294755	0	-2
2.3579241821089139	0.45122446226547019	0.77657674852153669	0	-2
2.4390000000000001	0	0.76889799438148609	0	-2
2.3442499999999997	1	0.77786896233964198	0	-2
2.4183372285950213	0.66885810853624061	0.77084995232066367	0	-2
2.4171127871306535	0.50009093050938724	0.77096789240731278	0	-2
2.464453723000215	0.56913755555517076	0.76648118585374536	0	-2
2.4771695634529562	0.75467139637019509	0.76527396556285265	0	-2
2.5024019375212347	0.91250506538605181	0.76288159158247848	0	-2
2.5	1	0.76310907937008465	0	-2
2.5489119496897779	0.83835689174005457	0.75847429252653875	0	-2
2.5113698050563924	0.25279478200963446	0.76204019206644313	0	-2
2.5387325655252044	0.15903504531241247	0.75944879788733521	0	-2
2.5324999999999998	0.061563182639228643	0.7600398742378992	0	-2
2.4448230224331557	0.43519280619664913	0.76834308262868078	0	-2
2.4757005041037377	0.34994332576796222	0.76541851477984202	0	-2
2.6259999999999999	0	0.75118220708168748	0	-2
2.5098681124131135	0.66917981151398154	0.76217635470283518	0	-2
2.4876252309464606	0.49733068650671691	0.76428655539500401	0	-2
2.5425764384763028	0.54903668242650316	0.75907876827747955	0	-2
2.6306108458845969	0.7643601183049904	0.75073253772129112	0	-2
2.5989565906499048	0.92140874589500577	0.75373085739190482	0	-2
2.6557500000000003	1	0.74834789697308524	0	-2
2.6517187323866436	0.85032894391760117	0.74873083563247589	0	-2
2.5844898035846122	0.29122210478019395	0.75511214547087557	0	-2
2.6277286397512309	0.10440924704532413	0.75101812904574616	0	-2
2.6514037827844827	0.24278954643646239	0.74877354439953259	0	-2
2.5214178119032455	0.42824288231359808	0.76108572417660747	0	-2
2.5752409059170551	0.37330530167221748	0.75598700316285994	0	-2
2.7195	0	0.74232521201917778	0	-2
2.7052222624475344	0.079986682742290177	0.74367731221349598	0	-2
2.5853612782251236	0.61742280135103556	0.75502324334457749	0	-2
2.6100499091547253	0.50482656448388019	0.75268614343563667	0	-2
2.7196652509507535	0.78807034856262759	0.74229201188539351	0	-2
2.6689866130157855	0.66810412284448151	0.74709751584995954	0	-2
2.733625	0.88390788338036541	0.74096733738217557	0	-2
2.733625	1	0.7409666895986059	0	-2
2.704442940710063	0.32961162844776609	0.74374684791277423	0	-2
2.6871953786045109	0.16545064034846291	0.74538406572303806	0	-2
2.7668710322466326	0.24927508890731875	0.7378348897345488	0	-2
2.6987373659035065	0.43119249581145314	0.74428470874596553	0	-2
2.8129999999999997	0	0.73346907654537807	0	-2
2.7662499999999999	0.13362751098869463	0.73789604690451782	0	-2
2.7009621625233451	0.57569548038685237	0.74406971925710397	0	-2
2.7595471168206469	0.70499027360302546	0.73851407501372568	0	-2
2.8546962279073886	0.81733382243348429	0.72949227900375191	0	-2
2.7613010482882054	0.62627539303342339	0.73835019010891356	0	-2
2.8083313272595065	0.91796008660387651	0.73388562909526367	0	-2
2.8115000000000001	1	0.73358494166364885	0	-2
2.8045905772886628	0.38618737032186579	0.73425717959700232	0	-2
2.8236904516645547	0.19114450984606335	0.73245414189264069	0	-2
2.8648559192733432	0.28821567932720349	0.72855178312838198	0	-2
2.7842402855493718	0.48531026040791564	0.73618149643706354	0	-2
2.9064999999999999	0	0.72461401361452171	0	-2
2.8638110228604532	0.093636830995619619	0.72865606235539915	0	-2
2.8238329813513308	0.57843329811620192	0.73242606241871344	0	-2
2.8413541223111931	0.66612145580014548	0.7307618387245316	0	-2
2.9318440941193482	0.8249049684368075	0.7221784918252474	0	-2
2.8893750000000002	0.93109443035267314	0.72620250313340662	0	-2
2.9247968549499554	0.69826976443863453	0.72285157601556072	0	-2
2.9672499999999999	1	0.718818595737309	0	-2
2.8768500891720525	0.36311501521403544	0.72741235354495659	0	-2
2.89898233654309	0.46694404963220676	0.72531037861518244	0	-2
2.9049764904692417	0.19070800047675976	0.72475520422081663	0	-2
2.9499944830727194	0.26623898940106389	0.72048860600483955	0	-2
2.9098344173145629	0.54228704779126502	0.7242779866061102	0	-2
3	0	0.71576068297535	0	-2
2.9532499999999997	0.07786265348595961	0.72018639664029682	0	-2
2.9510756617846163	0.61704001990620971	0.72036526030711212	0	-2
2.9833632149097218	0.76698350690613681	0.71729637245256817	0	-2
2.9820611850990013	0.88395883610356818	0.71741554863635948	0	-2
3.0047119281255212	0.67925763063888756	0.71527734176309543	0	-2
3.0451250000000001	1	0.71143367115831035	0	-2
2.941054815639375	0.40350713978187525	0.7213278836229553	0	-2
2.9746542456618212	0.47519615233351348	0.71814011108932652	0	-2
2.9884496337655486	0.19213763388949195	0.71685019186358379	0	-2
3.0313094211367835	0.2996968852339984	0.71278534562602969	0	-2
3.0028689262044774	0.54917025604784098	0.71546119437642131	0	-2
3.0935000000000001	0	0.70690917082840576	0	-2
3.0995466601904358	0.076976335159923914	0.70633586389474146	0	-2
3.040858191725293	0.12715184655071571	0.71189016399793315	0	-2
3.0662631064733787	0.80274948098152199	0.7094342130178376	0	-2
3.0832719820630459	0.90464219338971508	0.70781698919415248	0	-2
3.0858064233675253	0.66615942489458602	0.70759062708829112	0	-2
3.1230000000000002	1	0.70404728677013517	0	-2
3.022866032599433	0.41239599454115961	0.71357710606354174	0	-2
3.0970581028182536	0.4479996976640499	0.70654499212232869	0	-2
3.0733392865441385	0.20697225505170741	0.7088113841413255	0	-2
3.0886769769932316	0.36298945087117956	0.70734724931906656	0	-2
3.1325802131786356	0.28971263883402693	0.7031961928789574	0	-2
3.1243066885152113	0.55877507356141742	0.7039517152006145	0	-2
3.1870000000000003	0	0.69806050401054631	0	-2
3.1722219582106845	0.10305734993656882	0.69945665098969712	0	-2
3.1580582376959598	0.19119193662553668	0.70079244121306183	0	-2
3.1429999311633035	0.84230585499302235	0.70215438354559845	0	-2
3.1449488255874969	0.74431468262579425	0.70197633265699266	0	-2
3.1674581467365699	0.9255231674383968	0.69983014508794072	0	-2
3.1719491857220401	0.66242767501253774	0.69942394283640263	0	-2
3.2787500000000001	1	0.68926752646989753	0	-2
3.1524132297234404	0.49312241292554326	0.70129544655360077	0	-2
3.2007087646686059	0.38032188297809572	0.69673508300541587	0	-2
3.2646554707816255	0.2867144397389168	0.69069337990132673	0	-2
3.1991039784740565	0.54716150514928408	0.69686395991835259	0	-2
3.2805	0	0.68921544333666684	0	-2
3.2611309224658447	0.095087881652614156	0.69104514631395653	0	-2
3.2330965030633068	0.16834598706923135	0.69369252943093185	0	-2
3.2178102540901135	0.79307422626153279	0.69506072550551357	0	-2
3.2515259856847671	0.9202902918261705	0.69185294678982079	0	-2
3.2738683518475384	0.725666730129229	0.68974997773184288	0	-2
3.2407052954098448	0.61039788696907959	0.69291140306544741	0	-2
3.4344999999999999	1	0.67447372753863122	0	-2
3.3566249999999997	0.93947170747471842	0.68187300111261295	0	-2
3.2491898667311725	0.49040841400927188	0.69212640261523228	0	-2
3.3140553654529379	0.38910723609284403	0.6860003131125052	0	-2
3.3000552888571164	0.20920182735539267	0.68735373281632595	0	-2
3.382487296333788	0.23079618637950322	0.67955328634403533	0	-2
3.3933870573644072	0.30767556536715335	0.67850814339146026	0	-2
3.3174745682412903	0.56579942974982067	0.6856413482721635	0	-2
3.3740000000000001	0	0.6803754730414634	0	-2
3.3415205591416304	0.075978582088733981	0.68344354070439961	0	-2
3.3657810702127904	0.15496647114302478	0.6811433202405186	0	-2
3.2886740847828859	0.84469397401908797	0.68833185468006153	0	-2
3.3064306055352022	0.65389355285206607	0.6866719606632371	0	-2
3.361241627579306	0.70187863689002372	0.68146356903439587	0	-2
3.3674273799472383	0.77446343485276326	0.68086384777145081	0	-2
3.5119341130015207	0.93810203996367358	0.66711226809209379	0	-2
3.5902500000000002	1	0.65965658410994654	0	-2
3.4334203753595802	0.87757938045102946	0.67458222293807779	0	-2
3.3486205361487018	0.48265815046860255	0.68270726246855984	0	-2
3.4181335817494523	0.41114268992281711	0.67614124840836209	0	-2
3.4441779587678689	0.18364212109881231	0.67372910189529878	0	-2
3.4815875284636824	0.25826711108660594	0.67017866784472124	0	-2
3.5206446288238196	0.38269411244214913	0.66644808357050389	0	-2
3.3821725216117344	0.63210246543692417	0.67949221614258049	0	-2
3.4005028105295261	0.5494985397382387	0.6777739804621481	0	-2
3.4675000000000002	0	0.67154221644214174	0	-2
3.4343205563482115	0.089088280366478798	0.67467220453748755	0	-2
3.4403612271579989	0.68758487100427068	0.673957327726459	0	-2
3.4721401078468004	0.76143827663228658	0.67092189307543759	0	-2
3.5111601248208926	0.83897182128497172	0.66719871451679158	0	-2
3.6310759012311218	0.86598605838950604	0.65578178684385047	0	-2
3.746	1	0.64480259752597091	0	-2
3.6958629901039259	0.92671141735996676	0.64959442195520811	0	-2
3.4999807283758577	0.50715165684215791	0.6683587498475223	0	-2
3.5369195106845184	0.089706044351441971	0.66498400127370383	0	-2
3.5394878507634835	0.18255241201380498	0.66472618647434323	0	-2
3.5822389996305404	0.26774338717345658	0.66066572837001403	0	-2
3.6007550265008534	0.35164238719987068	0.65888387998151776	0	-2
3.6197402528661882	0.46747378601151252	0.65703098492317535	0	-2
3.4706771391047959	0.59753551188052412	0.67110636147324476	0	-2
3.5609999999999999	0	0.66271770474311176	0	-2