[Format]      =  4.0
[Frequency]   =  0
[Precision]   =  1e-008
[MinAngle]    =  30
[DoSmartMesh] =  1
[Depth]       =  7.6576320931251205
[LengthUnits] =  millimeters
[ProblemType] =  planar
[Coordinates] =  cartesian
[ACSolver]    =  0
[PrevType]    =  0
[PrevSoln]    =  ""
[Comment]     =  "Add comments here."
[PointProps]   = 0
[BdryProps]   = 0
[BlockProps]  = 2
  <BeginBlock>
    <BlockName> = "N52"
    <Mu_x> = 1.1240000000000001
    <Mu_y> = 1.1240000000000001
    <H_c> = 800000
    <H_cAngle> = 0
    <J_re> = 0
    <J_im> = 0
    <Sigma> = 0.00066700000000000006
    <d_lam> = 0
    <Phi_h> = 0
    <Phi_hx> = 0
    <Phi_hy> = 0
    <LamType> = 0
    <LamFill> = 1
    <NStrands> = 0
    <WireD> = 0
    <BHPoints> = 0
  <EndBlock>
  <BeginBlock>
    <BlockName> = "Air"
    <Mu_x> = 1
    <Mu_y> = 1
    <H_c> = 0
    <H_cAngle> = 0
    <J_re> = 0
    <J_im> = 0
    <Sigma> = 0
    <d_lam> = 0
    <Phi_h> = 0
    <Phi_hx> = 0
    <Phi_hy> = 0
    <LamType> = 0
    <LamFill> = 1
    <NStrands> = 0
    <WireD> = 0
    <BHPoints> = 0
  <EndBlock>
[CircuitProps]  = 0
[NumPoints] = 40
20	0	0	0
26	0	0	0
20	12	0	0
26	12	0	0
20	24	0	0
26	24	0	0
20	36	0	0
26	36	0	0
20	48	0	0
26	48	0	0
20	60	0	0
26	60	0	0
20	72	0	0
26	72	0	0
20	84	0	0
26	84	0	0
20	96	0	0
26	96	0	0
12.5	0	0	0
18.5	0	0	0
12.5	12	0	0
18.5	12	0	0
12.5	24	0	0
18.5	24	0	0
12.5	36	0	0
18.5	36	0	0
12.5	48	0	0
18.5	48	0	0
12.5	60	0	0
18.5	60	0	0
12.5	72	0	0
18.5	72	0	0
12.5	84	0	0
18.5	84	0	0
12.5	96	0	0
18.5	96	0	0
0	-48	0	0
39	-48	0	0
0	144	0	0
39	144	0	0
[NumSegments] = 54
0	1	-1	0	0	0
2	3	-1	0	0	0
4	5	-1	0	0	0
6	7	-1	0	0	0
8	9	-1	0	0	0
10	11	-1	0	0	0
12	13	-1	0	0	0
14	15	-1	0	0	0
16	17	-1	0	0	0
0	2	-1	0	0	0
1	3	-1	0	0	0
2	4	-1	0	0	0
3	5	-1	0	0	0
4	6	-1	0	0	0
5	7	-1	0	0	0
6	8	-1	0	0	0
7	9	-1	0	0	0
8	10	-1	0	0	0
9	11	-1	0	0	0
10	12	-1	0	0	0
11	13	-1	0	0	0
12	14	-1	0	0	0
13	15	-1	0	0	0
14	16	-1	0	0	0
15	17	-1	0	0	0
18	19	-1	0	0	0
20	21	-1	0	0	0
22	23	-1	0	0	0
24	25	-1	0	0	0
26	27	-1	0	0	0
28	29	-1	0	0	0
30	31	-1	0	0	0
32	33	-1	0	0	0
34	35	-1	0	0	0
18	20	-1	0	0	0
19	21	-1	0	0	0
20	22	-1	0	0	0
21	23	-1	0	0	0
22	24	-1	0	0	0
23	25	-1	0	0	0
24	26	-1	0	0	0
25	27	-1	0	0	0
26	28	-1	0	0	0
27	29	-1	0	0	0
28	30	-1	0	0	0
29	31	-1	0	0	0
30	32	-1	0	0	0
31	33	-1	0	0	0
32	34	-1	0	0	0
33	35	-1	0	0	0
36	37	-1	0	0	0
37	39	-1	0	0	0
39	38	-1	0	0	0
38	36	-1	0	0	0
[NumArcSegments] = 0
[NumHoles] = 0
[NumBlockLabels] = 17
23	6	1	0.59999999999999998	0	-90	0	1	0
15.5	6	1	0.59999999999999998	0	-90	0	1	0
23	18	1	0.59999999999999998	0	180	0	1	0
15.5	18	1	0.59999999999999998	0	0	0	1	0
23	30	1	0.59999999999999998	0	90	0	1	0
15.5	30	1	0.59999999999999998	0	90	0	1	0
23	42	1	0.59999999999999998	0	0	0	1	0
15.5	42	1	0.59999999999999998	0	180	0	1	0
23	54	1	0.59999999999999998	0	-90	0	1	0
15.5	54	1	0.59999999999999998	0	-90	0	1	0
23	66	1	0.59999999999999998	0	180	0	1	0
15.5	66	1	0.59999999999999998	0	0	0	1	0
23	78	1	0.59999999999999998	0	90	0	1	0
15.5	78	1	0.59999999999999998	0	90	0	1	0
23	90	1	0.59999999999999998	0	0	0	1	0
15.5	90	1	0.59999999999999998	0	180	0	1	0
0.10000000000000001	-47.899999999999999	2	0.59999999999999998	0	0	0	1	0
