[Format]      =  4.0
[Frequency]   =  0
[Precision]   =  1e-008
[MinAngle]    =  30
[DoSmartMesh] =  1
[Depth]       =  7.6576320931251205
[LengthUnits] =  millimeters
[ProblemType] =  planar
[Coordinates] =  cartesian
[ACSolver]    =  0
[PrevType]    =  0
[PrevSoln]    =  ""
[Comment]     =  "Add comments here."
[PointProps]   = 0
[BdryProps]   = 0
[BlockProps]  = 2
  <BeginBlock>
    <BlockName> = "N52"
    <Mu_x> = 1.1240000000000001
    <Mu_y> = 1.1240000000000001
    <H_c> = 800000
    <H_cAngle> = 0
    <J_re> = 0
    <J_im> = 0
    <Sigma> = 0.00066700000000000006
    <d_lam> = 0
    <Phi_h> = 0
    <Phi_hx> = 0
    <Phi_hy> = 0
    <LamType> = 0
    <LamFill> = 1
    <NStrands> = 0
    <WireD> = 0
    <BHPoints> = 0
  <EndBlock>
  <BeginBlock>
    <BlockName> = "Air"
    <Mu_x> = 1
    <Mu_y> = 1
    <H_c> = 0
    <H_cAngle> = 0
    <J_re> = 0
    <J_im> = 0
    <Sigma> = 0
    <d_lam> = 0
    <Phi_h> = 0
    <Phi_hx> = 0
    <Phi_hy> = 0
    <LamType> = 0
    <LamFill> = 1
    <NStrands> = 0
    <WireD> = 0
    <BHPoints> = 0
  <EndBlock>
[CircuitProps]  = 0
[NumPoints] = 12
20	0	0	0
26	0	0	0
20	12	0	0
26	12	0	0
13.5	0	0	0
19.5	0	0	0
13.5	12	0	0
19.5	12	0	0
0	-6	0	0
39	-6	0	0
0	18	0	0
39	18	0	0
[NumSegments] = 12
0	1	-1	0	0	0
2	3	-1	0	0	0
0	2	-1	0	0	0
1	3	-1	0	0	0
4	5	-1	0	0	0
6	7	-1	0	0	0
4	6	-1	0	0	0
5	7	-1	0	0	0
8	9	-1	0	0	0
9	11	-1	0	0	0
11	10	-1	0	0	0
10	8	-1	0	0	0
[NumArcSegments] = 0
[NumHoles] = 0
[NumBlockLabels] = 3
23	6	1	0.59999999999999998	0	180	0	1	0
16.5	6	1	0.59999999999999998	0	0	0	1	0
0.10000000000000001	-5.9000000000000004	2	0.59999999999999998	0	0	0	1	0
