[Format]      =  4.0
[Frequency]   =  0
[Precision]   =  1e-008
[MinAngle]    =  30
[DoSmartMesh] =  1
[Depth]       =  1
[LengthUnits] =  millimeters
[ProblemType] =  axisymmetric
[Coordinates] =  cartesian
[ACSolver]    =  0
[PrevType]    =  0
[PrevSoln]    =  ""
[Comment]     =  "Add comments here."
[PointProps]   = 0
[BdryProps]   = 0
[BlockProps]  = 2
  <BeginBlock>
    <BlockName> = "N52"
    <Mu_x> = 1.1240000000000001
    <Mu_y> = 1.1240000000000001
    <H_c> = 800000
    <H_cAngle> = 0
    <J_re> = 0
    <J_im> = 0
    <Sigma> = 0.00066700000000000006
    <d_lam> = 0
    <Phi_h> = 0
    <Phi_hx> = 0
    <Phi_hy> = 0
    <LamType> = 0
    <LamFill> = 1
    <NStrands> = 0
    <WireD> = 0
    <BHPoints> = 0
  <EndBlock>
  <BeginBlock>
    <BlockName> = "Air"
    <Mu_x> = 1
    <Mu_y> = 1
    <H_c> = 0
    <H_cAngle> = 0
    <J_re> = 0
    <J_im> = 0
    <Sigma> = 0
    <d_lam> = 0
    <Phi_h> = 0
    <Phi_hx> = 0
    <Phi_hy> = 0
    <LamType> = 0
    <LamFill> = 1
    <NStrands> = 0
    <WireD> = 0
    <BHPoints> = 0
  <EndBlock>
[CircuitProps]  = 0
[NumPoints] = 40
103.79467888754755	14.412427893638984	0	0
108.03731957466684	18.655068580758268	0	0
95.30939751330898	22.897709267877559	0	0
99.552038200428257	27.140349954996836	0	0
86.824116139070412	31.382990642116127	0	0
91.066756826189689	35.625631329235418	0	0
78.33883476483183	39.868272016354695	0	0
82.581475451951121	44.110912703473986	0	0
69.853553390593277	48.353553390593262	0	0
74.096194077712553	52.596194077712553	0	0
61.368272016354702	56.838834764831844	0	0
65.610912703473986	61.081475451951121	0	0
52.882990642116127	65.324116139070412	0	0
57.125631329235411	69.566756826189689	0	0
44.397709267877559	73.80939751330898	0	0
48.640349954996843	78.052038200428271	0	0
35.912427893638991	82.294678887547562	0	0
40.155068580758275	86.537319574666839	0	0
98.844931419241718	9.1091270347398776	0	0
103.08757210636099	13.351767721859161	0	0
90.35965004500315	17.594408408978452	0	0
94.602290732122441	21.837049096097729	0	0
81.874368670764582	26.07968978321702	0	0
86.117009357883859	30.322330470336297	0	0
73.389087296526014	34.564971157455588	0	0
77.631727983645291	38.807611844574879	0	0
64.903805922287432	43.05025253169417	0	0
69.146446609406723	47.292893218813447	0	0
56.418524548048872	51.535533905932724	0	0
60.661165235168156	55.778174593052015	0	0
47.933243173810297	60.020815280171306	0	0
52.175883860929581	64.263455967290597	0	0
39.447961799571729	68.506096654409873	0	0
43.690602486691013	72.74873734152915	0	0
30.962680425333161	76.991378028648441	0	0
35.205321112452445	81.234018715767732	0	0
0	-34.159532752593542	0	0
162.05597936200024	-34.159532752593542	0	0
0	129.80597936200024	0	0
162.05597936200024	129.80597936200024	0	0
[NumSegments] = 54
0	1	-1	0	0	0
2	3	-1	0	0	0
4	5	-1	0	0	0
6	7	-1	0	0	0
8	9	-1	0	0	0
10	11	-1	0	0	0
12	13	-1	0	0	0
14	15	-1	0	0	0
16	17	-1	0	0	0
0	2	-1	0	0	0
1	3	-1	0	0	0
2	4	-1	0	0	0
3	5	-1	0	0	0
4	6	-1	0	0	0
5	7	-1	0	0	0
6	8	-1	0	0	0
7	9	-1	0	0	0
8	10	-1	0	0	0
9	11	-1	0	0	0
10	12	-1	0	0	0
11	13	-1	0	0	0
12	14	-1	0	0	0
13	15	-1	0	0	0
14	16	-1	0	0	0
15	17	-1	0	0	0
18	19	-1	0	0	0
20	21	-1	0	0	0
22	23	-1	0	0	0
24	25	-1	0	0	0
26	27	-1	0	0	0
28	29	-1	0	0	0
30	31	-1	0	0	0
32	33	-1	0	0	0
34	35	-1	0	0	0
18	20	-1	0	0	0
19	21	-1	0	0	0
20	22	-1	0	0	0
21	23	-1	0	0	0
22	24	-1	0	0	0
23	25	-1	0	0	0
24	26	-1	0	0	0
25	27	-1	0	0	0
26	28	-1	0	0	0
27	29	-1	0	0	0
28	30	-1	0	0	0
29	31	-1	0	0	0
30	32	-1	0	0	0
31	33	-1	0	0	0
32	34	-1	0	0	0
33	35	-1	0	0	0
36	37	-1	0	0	0
37	39	-1	0	0	0
39	38	-1	0	0	0
38	36	-1	0	0	0
[NumArcSegments] = 0
[NumHoles] = 0
[NumBlockLabels] = 17
101.67335854398792	20.776388924317914	1	0.59999999999999998	0	225	0	1	0
96.723611075682072	15.473088065418805	1	0.59999999999999998	0	45	0	1	0
93.188077169749334	29.261670298556485	1	0.59999999999999998	0	45	0	1	0
88.238329701443519	23.958369439657375	1	0.59999999999999998	0	225	0	1	0
84.702795795510767	37.746951672795056	1	0.59999999999999998	0	225	0	1	0
79.753048327204937	32.443650813895943	1	0.59999999999999998	0	45	0	1	0
76.217514421272199	46.232233047033617	1	0.59999999999999998	0	45	0	1	0
71.267766952966355	40.928932188134524	1	0.59999999999999998	0	225	0	1	0
67.732233047033617	54.717514421272199	1	0.59999999999999998	0	225	0	1	0
62.782485578727801	49.414213562373092	1	0.59999999999999998	0	45	0	1	0
59.246951672795056	63.202795795510767	1	0.59999999999999998	0	45	0	1	0
54.297204204489226	57.89949493661166	1	0.59999999999999998	0	225	0	1	0
50.761670298556488	71.688077169749334	1	0.59999999999999998	0	225	0	1	0
45.811922830250658	66.384776310850228	1	0.59999999999999998	0	45	0	1	0
42.276388924317914	80.173358543987916	1	0.59999999999999998	0	45	0	1	0
37.326641456012091	74.870057685088796	1	0.59999999999999998	0	225	0	1	0
0.10000000000000001	-34.05953275259354	2	0.59999999999999998	0	0	0	1	0
